/*--------------------------------*- C++ -*----------------------------------*\
| =========                 |                                                 |
| \\      /  F ield         | OpenFOAM: The Open Source CFD Toolbox           |
|  \\    /   O peration     | Version:  v1912                                 |
|   \\  /    A nd           | Website:  www.openfoam.com                      |
|    \\/     M anipulation  |                                                 |
\*---------------------------------------------------------------------------*/
FoamFile
{
    version     2.0;
    format      ascii;
    class       vectorField;
    location    "0/lagrangian/dsmc";
    object      U;
}
// * * * * * * * * * * * * * * * * * * * * * * * * * * * * * * * * * * * * * //


14696
(
(1662.09326281598 -13.7147001715426 -129.092144861229)
(1253.21639471185 468.688126830162 217.921168202491)
(1916.53194103811 228.732330142414 153.801305705966)
(1703.8132637691 391.936129546514 21.8645520826184)
(1389.15674529086 96.6374155804584 54.7803122823235)
(1372.27358536905 196.164649610973 38.8375823160185)
(1878.95977606125 458.321689378686 -107.884148279442)
(696.518352213295 194.055419423724 -203.168768258812)
(1988.27931341671 -185.824705941935 114.326740109261)
(1599.1376856623 -369.682813529378 286.711649854078)
(1304.65840806758 160.069447908918 -168.451102336909)
(1656.49335675514 -47.4601278530709 58.2599654069827)
(1403.35165840508 514.783925987349 -880.737064966337)
(1616.09654081071 473.583646962915 219.905820168024)
(1846.99903893764 177.072782727764 25.9713003694802)
(1571.28038952467 492.131467179195 289.98313394436)
(1172.12719198735 474.508921172452 -77.5538163174827)
(1765.87175725182 293.8690781103 593.972144448997)
(1263.6747830177 410.727141011502 133.693415337944)
(2245.4074282759 806.299707336015 98.8775390071625)
(1837.86843973746 3.2883410526791 -365.574373667376)
(1760.07196270891 -4.35575703805105 -412.519118503187)
(1384.82991853926 379.20411425748 -55.1855727709356)
(1906.90216639047 -119.630193472168 -434.441783163507)
(1946.80216178434 -295.970515219858 -30.9974966859575)
(1910.32331882073 -204.84696828614 -106.276703891663)
(2057.29089803091 311.705464843725 -605.692339099604)
(1238.23467920706 701.850479141438 -17.8617732549283)
(1590.75485951453 531.262548925603 -103.07691066692)
(1742.55566003473 262.682407453946 -330.955638011088)
(1692.48960908864 867.093381719622 302.26584310975)
(1667.74039664111 333.954194995541 -64.537824796295)
(1756.42701115309 349.905743829542 -472.824911971693)
(2033.55396639218 575.041990749916 118.147622269794)
(2077.04720125351 176.818481233942 63.0296851852145)
(1454.53946188738 -255.043323678222 158.982917109537)
(1991.38838314234 414.530819597524 -315.893862996881)
(1698.10363561713 447.565435648766 -245.555002593249)
(1514.48618350974 -64.6316078254656 135.967565293927)
(1908.97557557726 -40.6147192665683 -23.9980845662846)
(2014.34590631738 -9.58863880095191 247.575283592531)
(1376.40484836661 190.413387552248 -321.679344520136)
(1702.74479287455 498.9759158402 172.27812965957)
(1496.15765844884 380.443722166244 -646.46115171849)
(1571.93052261783 -491.89438176265 87.2240501244243)
(1837.73796148532 431.044007355195 250.901880490556)
(1809.50948851688 191.103286927356 128.433253645114)
(1620.90851457047 493.195570951442 -95.2229175204288)
(1446.38353700974 639.312533517832 -123.600048743148)
(1651.66411038942 -146.739364519936 -90.950957297761)
(2096.18806902344 518.158375640313 -342.865045289422)
(1268.83038422576 457.712339059399 -20.5937475798916)
(1488.39966751818 549.133039313754 405.960233873221)
(1667.03815377942 748.170831096692 175.831009915949)
(2110.15911849953 -57.265314438537 113.896892290046)
(1513.12175206897 93.9871490898402 -60.5070689779589)
(1880.55980655212 363.295398603077 365.242486201643)
(1696.83051203175 -506.332028263078 -112.536430098908)
(1901.18344820436 527.674587342185 -428.285010307868)
(2083.99200962023 -57.351062118373 424.340941182199)
(2499.07923643708 62.7150835283958 -68.1320913106293)
(1529.51382939875 55.053505133187 202.157878800554)
(1659.21927538135 -261.602437692869 559.455580932328)
(1888.08927061373 397.437552035908 208.736564396554)
(1814.77034819845 560.636048720858 272.855828867407)
(2105.7097175364 501.881246810057 79.0449057905629)
(1287.80007212054 617.440907640586 -540.899956775199)
(1835.24752647296 39.6183949896667 -481.229699147498)
(1709.80318083054 203.543825109562 -187.501508616135)
(1383.46496772117 303.363830815538 -73.1109658265073)
(2150.03284969559 -364.341100110855 -375.708136380364)
(1912.66026920812 505.771317033521 -358.75371132755)
(1927.95724127467 614.126787961544 -21.0035403925935)
(1423.40977273887 48.6566853086151 -118.621741283747)
(1774.16403675777 318.65571691852 43.6598269823798)
(2040.77742315521 -281.556303431081 -34.7181816629453)
(1868.21304988223 454.376444400706 426.335308954818)
(1673.02886530572 385.942662499432 8.69612257608652)
(1864.02744147647 339.051663744901 -506.317510575045)
(1590.66008672177 54.0163131924143 210.538752224015)
(1504.73761253072 -85.3311818669771 -202.104019711047)
(1241.88688963763 569.528391140455 -5.33182379115092)
(1930.50625649416 73.4235341331097 167.567457446519)
(1382.81027462957 753.164873040863 291.646559331994)
(2040.02007556958 -14.5755429959112 504.879880475565)
(1467.83622868058 224.508508140408 -222.318574064028)
(2104.99074657092 162.642388808061 -131.408373825557)
(1849.51229007218 -231.923234493939 -415.921588171751)
(1952.80409366632 208.399746982803 -223.061639116282)
(1524.9579109981 391.699444378701 -113.084907856987)
(1821.43682548766 -154.502037771098 -131.464632754228)
(1245.4987678681 195.974442549969 -242.045251070718)
(1973.91679170269 300.945836798059 -140.792301404028)
(1334.4254363417 523.364288786168 -426.541951032308)
(1591.52898857637 162.68864869004 546.079875132093)
(1850.54873308106 312.438497810883 -9.71866534390992)
(1915.75296986434 98.0753667205854 -141.44024031249)
(2121.09195505697 286.664975582795 63.6183084729279)
(1851.90655826919 352.564507135563 25.3909426839354)
(1744.68349459048 441.112321795881 282.052196170676)
(2004.96053060103 136.226373446767 -467.757353398696)
(1801.04468022346 -51.2830516063306 -535.620390693565)
(1822.2577019537 161.13320500962 3.3684539163217)
(1439.80434399731 388.471628131562 543.30596136263)
(1939.15767027081 -415.508623057841 108.76825198362)
(1417.03621494747 119.081388780283 -336.595983176707)
(2219.66386893853 335.713433585513 -432.905494178072)
(1802.1730442429 262.881335379763 -2.11245319238935)
(1937.98111834676 571.254216087909 -279.603174355613)
(1349.19789561085 56.6127322690979 -115.300563861119)
(1698.79561113079 652.274795384099 -306.235274168014)
(1753.84288421453 497.559238127124 296.486542211689)
(1667.68479342349 441.827824947919 -18.7435185992575)
(1832.49122758321 388.381596794287 -626.717381430716)
(2057.89222534855 -128.119188472899 -165.656347227127)
(1500.26104497288 167.244530762587 -224.076575329243)
(1676.81867731363 370.974282358764 43.9374331959055)
(2029.97181078774 250.9638230443 -10.6246503400931)
(1221.95841458542 -292.39940152432 -398.132383921348)
(1638.81465052807 79.4403178186073 326.247023644696)
(1529.2184959118 788.504639752276 36.5019434890622)
(1393.47452420325 -69.5039551909332 372.517589743812)
(1932.94620798165 -411.728164065405 275.705868496566)
(1237.29233016142 -302.064140581843 -28.1634109587903)
(2064.28188733668 475.428419250594 99.055232950532)
(1578.03593998032 375.286228099247 -126.335403829553)
(1382.02423932614 387.585995231976 -218.129332216242)
(1442.45567989626 256.738333636503 94.1324938819918)
(1361.43891177893 126.663525270568 -153.530286204939)
(1094.48184118498 216.693531689835 367.094993703404)
(1891.26858700461 -324.997478112859 -202.347334878542)
(1841.13063931077 121.013950602108 -24.384295776179)
(2077.3377928296 93.5529770279469 -177.652573113119)
(1678.07115898881 191.550321893576 511.191688571043)
(2133.85346768452 32.4950710139032 -24.8637490608326)
(1702.37132919905 -138.646876740452 69.3466267791253)
(2016.91312535796 197.831483040371 -124.530029373397)
(1247.19313013975 -535.356121236511 333.224730875162)
(1615.14591490134 15.5119707326616 80.3735607106368)
(1806.01610435544 -12.1420142927856 315.407784273509)
(1630.51373888026 31.6481664319481 415.605595865968)
(1269.72132256116 115.528261411005 339.507481640795)
(1478.18691344212 -4.21365975406539 426.074831017773)
(2114.1047101387 193.622044593253 -591.139483608994)
(1875.72540714433 671.466292049939 -459.900581751669)
(2447.78725659198 227.276984361194 549.521095194726)
(1595.66080620442 378.515293575498 -224.353802771138)
(1843.55020406319 319.058617487815 -149.40613880032)
(1593.48759230577 805.548200343753 -246.696013614405)
(1422.99634955386 366.526804237899 -40.4588250586154)
(1886.2144131972 665.264081405776 -345.565711679758)
(1827.52261582017 699.979458545061 -76.0226730997458)
(1458.91670416161 98.4809430676623 -179.325548822958)
(2478.89837185154 379.331766825199 87.7719141797361)
(1256.65428141465 145.50808477961 -123.259348516697)
(1599.98387033514 -21.838110530946 592.996895920613)
(1481.52346488727 351.612851390802 -36.3838516741443)
(1903.9980735621 64.1675578043368 -44.3968126497416)
(1547.47961939035 348.575588911373 -532.993902340643)
(1534.34541649318 -23.3737237523699 -180.249136868403)
(1635.32727180256 322.665713052142 340.436223834132)
(1999.16891224566 -123.987358218765 146.527078030383)
(1678.70348018844 451.684122336925 169.465830863733)
(1940.59923762746 -339.305618660519 127.392643660481)
(2285.9997753682 176.511228492847 35.9739594842312)
(1829.35816884555 163.891493618948 -36.0503782832327)
(1465.76176116435 235.2110322149 28.3361816319406)
(1826.83698482252 766.02940660009 -555.881576657293)
(1619.85712952778 144.223424119298 -715.675207302193)
(1716.62859034506 266.088024798508 23.7463523915468)
(2212.13466561846 377.1279349008 399.018737300079)
(1332.24134364583 411.357850050275 94.0145472321998)
(1718.8174858923 148.836429135186 -205.843817718896)
(2046.26434301358 414.204333445501 143.59917456624)
(1644.47958787216 -33.7409012312663 -5.81414534192364)
(1947.95549900219 486.816739908888 521.815205968413)
(1632.49705563299 19.3398721337641 -281.083432670821)
(2025.1981224727 192.414026193643 -418.9203660909)
(1502.99085318089 510.184669123195 -441.419035263638)
(1820.90541386531 -258.850186154308 228.245115887665)
(1433.31808105913 565.568218619992 226.74749241177)
(1614.1483860776 -149.275230985206 -667.018536599059)
(1654.74898560126 638.673307388298 753.154348968549)
(1226.02942184896 141.72635768253 -182.128638663965)
(1142.98082803829 -268.073167040428 -16.3120323173107)
(1682.14577389897 357.185280968801 162.332286273431)
(1764.68071327373 112.355968645295 -15.0591196014054)
(1714.74456503615 494.588778385809 -664.691539131533)
(2316.15566677497 -527.241731344742 50.5256199733177)
(1494.87414756377 280.315257179589 -699.918524206006)
(2164.75643006499 343.100114440023 173.481611518352)
(1810.49294898344 -27.6846120891019 370.77761843183)
(1452.69107542808 695.290861827089 -229.272451633531)
(1564.70949109977 -571.873596061996 255.525225723434)
(1906.99263815475 257.243456473556 96.5036966756814)
(1626.1186776471 -253.57869600947 53.2176289964989)
(2268.39008727142 11.6446966332483 288.409703245893)
(1849.46495526667 -26.3527299858972 389.706647691056)
(2005.55260594941 219.990370488039 523.132497887775)
(1619.64286541701 570.418494085193 236.371543790932)
(1404.23311804474 100.451644292159 9.59119528722524)
(2097.72154762029 443.595563347194 81.4941594440542)
(2006.48683815909 50.8067553816258 -332.467341074481)
(1395.14473573901 -233.463675465079 728.098958133212)
(1600.4124182883 252.786233375744 -395.375694857899)
(1648.18203868696 388.851592239859 26.2619561324024)
(1684.71504192318 100.547847638232 528.427879380354)
(1367.31832747461 209.847782746559 -233.185568346851)
(1339.01132645074 -30.8704102912102 147.681480660795)
(2144.0482600412 312.017193923514 346.322509073374)
(1902.44690082728 612.068183744568 -42.0499814537742)
(1769.54544080664 13.2843249995678 141.330360444935)
(1854.11135551965 753.160552512654 66.57324872162)
(1267.89860128167 281.887242950308 -35.3096034717729)
(2004.41288769479 124.418224469477 -309.822893212546)
(1859.0557159847 281.375233801714 143.804514696705)
(1820.56843859674 -280.292819101756 2.19090572547648)
(1632.99549623752 738.862446971354 -39.8213320094321)
(2094.25598332794 67.548553668036 359.314621314129)
(1776.25195958787 471.834877131237 -445.174362383914)
(1629.56510740428 462.867409668035 343.091990377385)
(2241.15010712542 471.507029853759 64.3668191438294)
(1378.09484939318 259.657254234607 22.3592504768603)
(1841.29862827888 -192.763180204204 -146.218746313636)
(1674.06252959422 224.578910269702 112.137932836511)
(1479.13395238605 610.436133611121 -393.794106891926)
(1626.55665896684 518.113365633148 -60.0523453156407)
(1424.64761515539 -371.653869247609 38.5014155495287)
(1850.02804137111 578.392216655899 614.722361530555)
(1694.28373998626 510.567425718754 -58.4914244299823)
(1927.78249060749 -14.1400832157744 -180.834088965034)
(1499.38151038571 469.960936366646 -228.818232135895)
(1509.97092977675 631.032226331047 -199.253706457902)
(1939.27851038861 279.156192608645 -502.218587647458)
(2227.40927855208 -245.317451446274 -175.225453380573)
(1553.15263336942 506.002877027831 51.8415650812026)
(1315.90530309354 130.728179600358 74.3625135280866)
(2062.65438542228 294.977079573521 -237.664634276096)
(1297.91315947711 425.383343759053 389.930069654499)
(1376.75828514631 234.904195448873 -450.670395828524)
(1303.40827432625 753.131440988316 -237.379640506138)
(1603.55488821147 352.391541846814 -335.899914097215)
(1822.45623600805 901.956674970811 -271.485739396103)
(1544.82747709402 387.795445241907 -717.119316059373)
(1438.03899975568 698.517076061064 -310.536250483285)
(1816.18440779276 139.80445751701 -274.809376160586)
(1943.44246118418 136.52617532904 51.8820262783274)
(1509.48057928734 99.1266429937226 -130.300291756107)
(1796.36791833312 507.449771254859 34.4101011147368)
(1788.75357453344 146.92047185788 48.2670564357784)
(1953.42241838492 334.637927957215 112.020815272824)
(1930.63616174968 311.040900200489 -229.141866777)
(1513.83856653005 616.453661868284 199.010877076268)
(1509.91391911195 760.481651941685 425.360357560448)
(1796.39270840955 453.569524313873 208.467486298441)
(1721.62416005549 72.6477348168566 195.717767209455)
(1624.00706592034 216.931451338541 159.073767792019)
(1625.83553318534 -51.0316578282494 193.756571035006)
(1768.46703788069 -337.237400289326 471.73300849748)
(2228.84444425272 910.287705609508 -301.151432614739)
(1665.47415779392 198.300232341571 -276.809875559011)
(1440.13910488245 512.944704714593 21.8494641883414)
(1609.11740922256 305.0131938282 -8.10119042021983)
(1899.1224736163 -231.901793756887 -402.412753752702)
(1976.60009008381 433.942976252154 -197.672117360472)
(1788.76023399592 -263.40788395014 -193.346824013075)
(1239.00099241772 449.621654004484 243.619169783433)
(1984.17930590137 199.571442910181 -29.6292409536066)
(1592.68014367125 93.3716029272933 -237.718204009831)
(1641.77644925478 191.278191304843 -403.007324979536)
(1716.00017991448 338.442331885762 -81.6223298125057)
(1126.76545647978 563.126723233472 -127.745812271723)
(1993.86031296887 83.2038145563043 285.696938866065)
(1816.49891260726 397.818656914544 290.613194585617)
(2265.76941130167 1024.88510627715 88.5507421615582)
(1302.14767896757 288.807049123973 -189.105260405863)
(1553.42760264064 156.81332873064 -158.184341983133)
(1895.78814743682 765.646199103052 -457.047163544315)
(1583.88960042261 116.506917904788 85.9568569353909)
(1831.73727434551 456.345821520157 177.359494068224)
(2030.72511722704 476.159515436947 -285.365332956486)
(1364.0551974451 479.153842090914 -209.501445250177)
(1538.83746588624 359.496187603684 142.83200234101)
(1974.19285728527 227.497052975188 -465.620894773387)
(1776.3811421887 -118.898230514772 -25.4691918416637)
(1722.27107487005 557.75445704155 -261.048386700035)
(1331.25560738643 565.563962146925 -66.7788579909481)
(1473.57082908478 182.462853260478 -6.20458883512689)
(1524.41836993699 252.012340940567 -272.571875201139)
(1948.47197326753 -9.00749369239986 -421.389551141884)
(1471.07642419718 392.904896649875 136.579854491971)
(1491.96748456356 7.72365671053953 21.1926535193803)
(1527.03668191936 34.3773808601908 -97.9912688820611)
(1688.45090054998 495.043577722316 458.490753102368)
(2353.25896798763 243.304593364044 -351.41613642662)
(1465.97026690092 433.190527629125 81.2247780208451)
(1891.62586271316 837.392536923388 -448.219585661561)
(1843.16952757168 763.01558478889 -58.8587013250053)
(1302.05135284758 136.25847366445 -82.1368591831037)
(1984.15601979264 -48.6298624009241 -53.2067906920331)
(1910.78575258845 399.49581184075 -179.954093529953)
(1635.1325227821 726.322727173793 165.822161072552)
(1857.32979444424 -28.8097521652122 377.527051017277)
(1590.79303719196 301.758349189414 -15.1080381294014)
(1551.8033129159 -191.8658064983 -222.703222956499)
(1815.00150007576 181.411522199908 -90.5497863147001)
(2003.59045111423 520.182430501753 355.872432015555)
(1745.98132101035 332.999448312172 -482.808665760054)
(1265.02431269639 395.582788528976 262.217050088114)
(1812.7790244184 603.300492074213 622.846625577289)
(1470.43258858904 655.471941028249 -516.599331383825)
(1562.82733673242 -126.611706606509 -576.917110402889)
(1951.59064977527 93.0334236730255 -57.9256358321972)
(2057.16733000418 439.391803268845 44.4916740339783)
(2018.27556067438 96.0438716346449 392.832968337496)
(2309.18883392934 -207.674910040225 -375.677824113326)
(1781.26226037939 -119.957892029247 227.535039156122)
(1506.78562019499 -662.564000660034 -476.738111783331)
(1522.94143884266 273.241450920901 -379.978927556259)
(2362.01741442856 459.928794859366 -558.258898947199)
(1810.11453272888 -29.1045392085385 -253.446982126086)
(1769.09249640269 51.3454357266522 66.5598465958545)
(1544.61157704748 232.181448008346 159.295718632056)
(1464.22246290154 -223.754704321715 60.742232507323)
(1277.70190826191 460.016797120481 572.966759067275)
(1913.13958388152 719.127944733153 351.172767958189)
(1474.50457998027 596.300670713194 -344.779084727438)
(1532.92420221632 109.727803026404 -33.1458242852992)
(1831.77690804297 67.2148618626456 135.595405538415)
(1807.93961502533 343.866739316579 100.430834968602)
(1239.98137275611 220.092961497534 1.26459713658983)
(1944.13309967173 98.7677869196439 37.8153446204881)
(2274.4180793461 367.51708105462 -180.239075750645)
(1909.82338610201 416.647739772737 174.776684796501)
(1768.43425584506 -35.9897182222196 233.169200022059)
(1487.61219218556 64.0566634476194 208.322030111346)
(2445.52948532101 453.529559409675 -50.1990031299895)
(2000.96475256058 325.952889108718 -460.272867781745)
(2107.60538711928 154.691096528543 -161.645403929099)
(1827.46933699286 -535.094484609167 121.758189016628)
(1260.05926067441 -222.1057388501 362.660942539089)
(2519.06737885141 -206.337513915271 63.6799483749781)
(1743.36275983234 294.933023889908 77.3583470450023)
(1412.84157244138 245.183828462637 212.888684950005)
(1683.46222122467 353.798517327378 55.4119463416128)
(1650.47539586363 -20.859632694227 476.118075602357)
(1615.04471260783 390.994573167013 -13.3941117784297)
(1507.22726874269 732.549620203145 84.1734524327423)
(1875.45210791807 -21.1573730276215 -366.931832762257)
(1869.99795813012 293.32950500057 24.0950983799307)
(1422.35258282401 446.42796546339 -66.5708177113123)
(1704.39011739935 195.342223130062 -473.671036174117)
(1908.44530881056 522.56367155489 -25.3950401917845)
(2055.37412760843 459.533825362971 286.582595798828)
(1923.68185593661 576.625983595056 -57.2704043834163)
(1474.15310906968 300.498717289617 -540.120853992148)
(2048.19957867214 295.996965220482 -295.267786777177)
(1606.97797798812 334.998230447026 183.494474970712)
(1799.01163403909 475.483495590651 -426.697667304415)
(1893.97577438735 335.908283730219 -251.584695830716)
(1739.54695797534 76.5014678202897 37.5779277451686)
(2071.5006148278 -288.9689863737 -142.74246481022)
(1706.83388104006 538.176728108602 543.719887803979)
(1619.06763163025 480.694022965018 389.246874728484)
(1206.96462047334 -149.558741572778 256.973969335457)
(1804.8679658753 311.351167004065 -22.1386693971046)
(1776.84945079774 479.521894915176 -93.6228959190627)
(1802.67218072373 -2.17140523729418 187.434804775966)
(1577.5183807188 95.8863796779912 352.592230370131)
(1607.60399595404 295.461874439295 211.09042752337)
(1878.18974224285 170.307322815255 -105.533118917816)
(1742.34313582482 189.508727399157 -458.105728685492)
(1615.62151342944 450.280374523551 -349.006167307507)
(1398.82356404921 -42.0030392085703 -137.594031077593)
(1631.66796103097 31.6206392126953 110.077348222023)
(1700.62411809162 202.370349920607 186.324948899951)
(1508.70801440809 25.1368626455972 -323.460826191995)
(2092.54256105453 448.917332022545 -202.386237793414)
(1619.22770127269 296.641468250473 427.84130991959)
(1525.04516957608 189.688751054591 214.792018691667)
(1587.95803961765 95.3967691120774 122.999914346575)
(2157.56134125573 -144.601794750585 -263.522710605748)
(1476.41813307262 332.597998704878 -148.096008776143)
(1168.87399167639 -468.194644697573 -160.987110464732)
(2042.2368429569 135.987627679839 114.555262703039)
(1990.37134514398 322.81820974469 74.2517249888852)
(1553.3151036124 416.278014850658 -113.012684120732)
(2011.20946852964 -274.899550981282 -89.7939720470599)
(1376.18922951136 339.191492083284 -25.4699315147316)
(1578.17562822837 442.347770938723 -12.6622326776824)
(1646.64963692211 16.8655396208879 -91.6271183087571)
(1688.15275729567 342.036948601892 -75.8415956722538)
(1681.22430592929 306.341919742846 107.854238402879)
(1837.01829237408 565.751068304101 -223.805494537857)
(1501.3155060334 432.347783927144 -149.472926067006)
(2376.96804621668 757.031861055629 235.210161131468)
(2011.47742664193 144.222903018613 -380.869530005907)
(1178.65548331341 288.531167431686 -446.381360981133)
(1946.23476644115 -278.056146513935 208.142069331744)
(1544.07823876765 319.37290685414 301.767138047986)
(2146.8730180602 386.420503332278 -314.073323793825)
(1825.78742009336 685.516485921298 232.978475386162)
(2002.66264318744 256.994513176125 -121.169252171359)
(1737.71148503524 200.007723200178 -402.675566892061)
(1890.08689752933 573.782839940905 -163.199327107223)
(1789.66998387179 138.394554447136 -291.851187544297)
(1791.32382983674 79.6933081860931 233.358715449401)
(2025.49685642498 663.247535087509 164.886074775412)
(1568.44125914559 178.721401922393 227.758240004499)
(2020.24027740255 408.46403798888 189.40910078009)
(1852.06190997846 181.496221408806 -93.5072064502628)
(1923.18157934356 539.106301403545 701.88930607511)
(2282.49111484903 -9.30265631896174 328.653554523001)
(1757.67891381956 654.637536822444 164.979626946153)
(1507.91164739627 376.584905811781 196.053309811583)
(2173.71374258085 339.138572209724 267.684558758824)
(1837.27818877816 104.398717614529 -360.804295369157)
(1765.11330923648 -133.610593192903 -250.923398899057)
(1978.65376191041 491.902197877725 -289.312920739898)
(1380.41291807646 644.032963226155 248.991042780174)
(2246.8364274131 40.4584536938317 12.3255998339059)
(1614.27183590831 135.7566366606 -49.2846003389372)
(1765.55636616429 -14.7090309558566 176.469611951933)
(1325.95898987431 544.228035701616 555.576223063414)
(1518.82714170454 380.234341273374 -771.528528605497)
(1692.72735071237 -8.86540282677015 10.6466789059147)
(1278.00797763521 211.3376795488 374.830570542635)
(2044.73206916731 320.309123342597 320.945571108193)
(1720.24470769026 431.85071032816 287.890442396624)
(1760.26408934256 184.802739186696 100.187320097987)
(1114.96987943679 395.907464564301 205.120369625968)
(1874.26508415206 -339.048309222129 -87.206114591635)
(2112.05164603574 47.8778715633221 -87.5704207334765)
(1836.74955281338 312.950966942989 102.570666251688)
(1943.05977757671 448.395448177962 310.149700505081)
(1481.13570883625 285.233336867589 256.598137856683)
(1724.86621265581 -154.939398449303 180.601580045555)
(1350.59463133404 395.168566586316 -120.052002854539)
(2238.73819438328 36.9304550490885 -366.253696369697)
(1225.10192660911 681.664565467353 -353.681883910161)
(1356.77274530395 378.486128554018 -328.229004264295)
(1424.19622728986 341.086921288669 146.432487347251)
(1957.06414591699 -236.567085279207 327.734131343319)
(1398.02863552391 225.685725159648 -85.2462564704491)
(762.489647474956 -169.578722506306 -116.419822787984)
(1843.44166996857 172.247045680229 121.872818459037)
(1626.97453585361 1080.05375807182 -187.183893782536)
(1680.30347330571 505.545243705321 124.027244941616)
(1920.11164508288 59.267540046375 -61.3243681548181)
(2090.74219090976 120.202747693446 -4.2454582487465)
(1308.39270733829 591.894454335377 -481.270881179444)
(1169.44229624785 40.0862790479378 -328.51512294816)
(1325.37608869475 191.327117169988 -31.0067146819583)
(2042.97183193238 144.784187495094 -254.06170642681)
(1664.25366643876 -84.9257514538256 776.780619165774)
(1544.82967782758 951.590120217074 -57.2786126784694)
(1883.89402697898 383.331130247096 -260.033121024771)
(1859.39331115153 -222.470708243147 225.578424157881)
(1625.48157425661 48.7396583669473 -210.173308326352)
(1215.38782482466 351.55536687389 -214.456236089372)
(1599.98340753046 250.351484019038 135.997169508915)
(1603.88269470108 828.337314934447 -423.275318241832)
(2009.17649186599 397.656960698758 315.670695001338)
(2031.61986918226 -112.017673684803 -93.9844583978348)
(1525.58944504158 -358.369793861288 437.903820672655)
(1447.1945930948 366.960578705882 107.140032007058)
(1802.25968752413 -51.741548990936 274.94937107891)
(1691.07502981697 569.171512979355 128.042487636036)
(1965.1731867863 302.10374824618 -82.9266322801219)
(1707.16599718242 -170.520595663168 -327.792390670212)
(1738.22813144601 350.39186780751 35.034753432749)
(1646.82537201823 247.49288111091 -591.122459257331)
(1789.48368515459 90.8067794826058 178.533893699897)
(2033.62227395401 783.920821184475 -97.7822358136892)
(974.852511574778 -67.8601581394897 -160.817539423479)
(2000.67649299287 429.783111505833 -73.4166030506763)
(1566.97976215739 490.77421176543 287.425754006965)
(1326.70105164779 855.716264878059 587.359756482363)
(1441.0521632302 475.27897661013 -197.397125008391)
(1202.98583039257 319.085812105711 -547.991511519502)
(1613.04101883333 417.556028808114 -218.206053757599)
(1827.947705605 241.582536751546 138.782562606416)
(1503.15077259602 198.145431737516 145.102603336798)
(1344.84179594128 542.147201733113 -282.227355970542)
(1518.20967998762 249.150531789229 336.127359051769)
(1400.1199842296 276.658830585917 -20.0671844874778)
(1877.9860397597 -336.716549931733 360.208064989283)
(1942.5048398308 60.8365706347753 -55.3243753060581)
(1553.44877632586 259.362613022024 172.272268290637)
(2011.27813797719 -218.346461040097 16.3419063553219)
(1889.18686138129 85.4604183047341 -134.252550529131)
(1804.08183327337 494.782963080307 -142.715469078452)
(1581.5082559185 358.370073900821 305.039578892754)
(1608.95805885732 -21.6083135014421 -178.868431917168)
(1382.16802253704 377.016620003259 -80.804207620546)
(1909.04134836494 145.756121020434 -47.4765804971938)
(1480.3453685039 632.631001702212 21.5809383323109)
(1148.94437601275 251.590953627037 -159.784582599181)
(1415.13493634099 250.476978343491 415.760443929618)
(1946.80842356194 123.853623700469 156.618722259611)
(1964.19642484036 96.430737012755 -174.439349035529)
(1627.57705738202 -11.951413798255 -197.410351164758)
(1535.31099940307 128.048550409704 -805.214170792315)
(2189.92055598532 302.653074947456 -308.303911952983)
(2286.53821320558 229.255556150347 -113.667493654925)
(1716.96206107287 110.463828925163 -210.277433447233)
(1375.15667794735 511.243567068557 -455.421887053999)
(1899.55385072942 293.612452528725 228.948192150008)
(1654.34974117069 187.092002733916 -88.1873211329066)
(1704.65112360677 402.179089588457 364.946259450361)
(1340.3933955572 351.093833773808 -427.629869031262)
(2235.29939739318 -109.465687961132 -323.274386108436)
(1991.04738741545 -81.6967850274816 -323.407352996274)
(1499.747177669 -81.1333844053253 301.070509550003)
(1326.02525975478 239.705016287929 -42.2613392641902)
(2162.62136758875 -283.246693011484 -415.844461750277)
(2178.54915523263 454.21984165345 17.264181816316)
(2154.03751671063 168.542672876705 101.639337152832)
(1941.65664830636 -669.4134695389 -32.4129775583822)
(1568.08860274036 634.008871699664 209.22370834603)
(1905.02789109451 219.685227928788 -220.704137309592)
(1645.17227870189 186.821363580923 -403.263240896072)
(1415.60956970598 -341.208196715077 198.16167594937)
(1541.56783237197 60.1579573111421 30.65121689048)
(1348.22205885552 228.033210746412 84.8542903051995)
(1848.46935469015 242.473607460379 -25.0839490825041)
(1537.89360469839 -208.912822014198 116.018555217194)
(1633.64205295333 168.941277947994 161.022293902381)
(2445.56417276607 295.992855842378 -310.420971899655)
(1657.95928559874 47.7331510000389 118.582261211891)
(1833.7591955812 687.643012511516 -38.4454454542029)
(1819.03256838307 95.2647364456383 107.388908191423)
(1961.97150530792 983.98601227394 -491.333574093282)
(1320.77152734886 314.270642996769 502.611452025864)
(1940.85607750286 422.730768774396 -199.800079163958)
(1548.10814439573 286.377855201462 -36.5958634678579)
(1250.45499445379 -26.5498733860454 -167.322347094512)
(1890.23281116429 923.498554368363 128.042669197416)
(2219.56730189872 134.755573615647 97.6489870229369)
(2118.31848398138 288.663314694454 -294.888860434051)
(1815.07357327019 -357.665207035546 -23.8970240611177)
(1028.35017319242 309.573726285167 71.9640027232876)
(1650.22254685946 418.050747836819 -261.904065673144)
(1246.96894713397 150.84621453797 -28.1992833340787)
(719.228221672404 264.19024938514 -49.9801305201341)
(1688.44793582483 480.387461667405 181.59778711319)