/*--------------------------------*- C++ -*----------------------------------*\
| =========                 |                                                 |
| \\      /  F ield         | OpenFOAM: The Open Source CFD Toolbox           |
|  \\    /   O peration     | Version:  v1912                                 |
|   \\  /    A nd           | Website:  www.openfoam.com                      |
|    \\/     M anipulation  |                                                 |
\*---------------------------------------------------------------------------*/
FoamFile
{
    version     2.0;
    format      ascii;
    class       Cloud<dsmcParcel>;
    location    "0/lagrangian/dsmc";
    object      coordinates;
}
// * * * * * * * * * * * * * * * * * * * * * * * * * * * * * * * * * * * * * //

14696
(
(0.352578152082545 0.0830042463334006 0.223210048678196 0.341207552905859) 0 1 2
(0.140754717383509 0.722111791440821 0.123151508844766 0.0139819823309039) 0 2520 1
(0.00037792144023685 0.0392385823008151 0.367378289077171 0.593005207181777) 0 2610 1
(0.0892902627219346 0.214456614588264 0.0450006136373335 0.651252509052468) 0 2610 1
(0.156667804438594 0.288838390646197 0.0690185500992307 0.485475254815978) 0 2680 1
(0.239596557117096 0.01477823784935 0.522562005749808 0.223063199283746) 0 2680 2
(0.445394142665363 0.378600397406465 0.0186429222021468 0.157362537726026) 1 3 2
(0.439180398593016 0.0416462306191007 0.325111768633098 0.194061602154786) 1 2611 1
(0.176901190862792 0.392961056630143 0.371039508023038 0.0590982444840263) 1 2611 1
(0.383323239904784 0.245592995032942 0.128520563187008 0.242563201875267) 1 2611 2
(0.211530794114992 0.604531951037138 0.150428189201512 0.0335090656463587) 1 2700 2
(0.0945409632002536 0.0654477194827223 0.765796095338926 0.0742152219780984) 1 4000 1
(0.0930713005484662 0.183926275668908 0.117006842235652 0.605995581546974) 1 0 1
(0.141889309113964 0.100811816037717 0.358903216489596 0.398395658358723) 1 0 2
(0.0642740288277553 0.50370584776794 0.361101230724012 0.070918892680293) 2 4 1
(0.0723452780390598 0.0686997243370846 0.693607771935822 0.165347225688034) 2 4 2
(0.168513632287651 0.405947679241577 0.380792501756879 0.0447461867138932) 2 5 2
(0.00881880500806342 0.180862263824541 0.561783381343729 0.248535549823667) 2 2720 1
(0.229340546022197 0.148817976967573 0.300866560011233 0.320974916998997) 2 2720 2
(4.18834653406197e-05 0.624403904561512 0.173172381756671 0.202381830216476) 2 4020 1
(0.0393220883638292 0.261875765744594 0.3635766578173 0.335225488074277) 2 2 1
(0.0931108046759364 0.169554765550489 0.311987132084917 0.425347297688658) 3 7 1
(0.13641219659521 0.466238578726761 0.214565452453781 0.182783772224247) 3 7 2
(0.0594076199298455 0.873670965776848 0.0644559086536489 0.00246550563965801) 3 2613 1
(0.318852664715869 0.195048155419044 0.137987145380681 0.348112034484406) 3 2740 1
(0.739181516017244 0.0361821884768057 0.200095892605312 0.0245404029006385) 3 2740 2
(0.00616928290252749 0.737216537290751 0.107450499494219 0.149163680312502) 3 4040 1
(0.123323620989134 0.355258050912488 0.252926330724665 0.268491997373713) 3 4040 2
(0.125105515830381 0.206991696700328 0.217854935762832 0.450047851706459) 3 4 1
(0.210089008261815 0.143073043546258 0.08534462270474 0.561493325487187) 3 4 2
(0.0898875626876697 0.143286817973317 0.0893132645786978 0.677512354760316) 4 8 2
(0.137683660986028 0.406108042441445 0.282454350505251 0.173753946067276) 4 9 2
(0.532013280398884 0.0501588132376136 0.383755035587562 0.0340728707759402) 4 2760 1
(0.145517668686834 0.179455360961714 0.0600772250451852 0.614949745306266) 4 2760 1
(0.369303963695238 0.030334847537518 0.466215445431749 0.134145743335495) 4 2760 2
(0.161902940239104 0.0674125782827272 0.675952514359331 0.0947319671188378) 4 2760 2
(0.353757266613565 0.00397466620501359 0.606828201926365 0.0354398652550565) 4 4060 1
(0.0651068578672699 0.431128195851922 0.394594917735207 0.109170028545601) 4 4060 2
(0.150037774427737 0.319651492090753 0.206517110501276 0.323793622980234) 4 6 1
(0.287952281499132 0.284098242408019 0.196289671772948 0.231659804319901) 4 6 1
(0.698442465048798 0.0207047786603457 0.251752171841427 0.0291005844494302) 4 6 2
(0.579900525513401 0.0136791675697353 0.0323994331174458 0.374020873799418) 5 10 1
(0.477682379634537 0.0409136973328112 0.414130397891167 0.067273525141485) 5 10 1
(0.070690773519258 0.166610713822943 0.0325736003800909 0.730124912277708) 5 10 2
(0.725233353890654 0.0198602491924193 0.252859710215969 0.00204668670095749) 5 11 1
(0.187630547467318 0.235078181376062 0.429851601722063 0.147439669434557) 5 2615 1
(0.112379876318907 0.025692036755009 0.807078958054075 0.0548491288720091) 5 2615 1
(0.249905458185792 0.12011425717543 0.326005719345226 0.303974565293552) 5 4080 1
(0.410867649554011 0.00965321715126583 0.00181772588776611 0.577661407406957) 5 4080 2
(0.301927822791599 0.0271064203840557 0.234234229943692 0.436731526880653) 5 8 1
(0.448925449736748 0.164497088638073 0.0242233714798216 0.362354090145357) 5 8 2
(0.158676685427091 0.585322622498984 0.184269852586274 0.0717308394876508) 5 8 2
(0.418242133120414 0.0374870447263198 0.0698247503982482 0.474446071755018) 6 12 1
(0.0873727648713549 0.475873016010388 0.136817955137806 0.299936263980451) 6 13 1
(0.168890650445899 0.529791446792656 0.202562821863775 0.0987550808976703) 6 13 2
(0.288269936723101 0.291333057282474 0.365308390979097 0.0550886150153287) 6 2616 1
(0.514098066134917 0.000961704071603539 0.410389540811763 0.0745506889817163) 6 2616 2
(0.226973349450228 0.377586203848477 0.288069820065207 0.107370626636089) 6 2800 1
(0.554424535655217 0.0293751831231006 0.195022787120395 0.221177494101287) 6 2800 2
(0.201056391162616 0.318805967703343 0.375548523175189 0.104589117958852) 6 2800 2
(0.1986510278081 0.690201971626227 0.00465018225953622 0.106496818306137) 6 4100 1
(0.230165965765627 0.105601992058743 0.155239815061607 0.508992227114023) 6 4100 2
(0.0357785219115831 0.12747569122399 0.524457735709435 0.312288051154992) 6 4100 2
(0.0681893392294165 0.562496144665793 0.220651450786118 0.148663065318673) 6 10 2
(0.236959714070663 0.353452606877886 0.0374224047285181 0.372165274322932) 7 15 1
(0.0982066743061095 0.745500940625573 0.0867892651743519 0.0695031198939658) 7 15 2
(0.488125590886769 0.220265226707454 0.203150427903558 0.0884587545022185) 7 2617 1
(0.150791003235494 0.0113089410119828 0.44154649796944 0.396353557783083) 7 2617 2
(0.0114382965905832 0.460835118517427 0.255028234443621 0.272698350448369) 7 2820 1
(0.33527800625979 0.446233995121669 0.1615763575843 0.0569116410342411) 7 2820 2
(0.0375579543481639 0.397420748985483 0.371706929520809 0.193314367145544) 7 2820 2
(0.0969730344295019 0.139823274860686 0.485049418241891 0.278154272467921) 7 4120 1
(0.0608991808596714 0.308832174041791 0.525524057676367 0.104744587422171) 7 4120 2
(0.332629337255842 0.284499439912419 0.241954884273363 0.140916338558376) 7 12 1
(0.0517833891739908 0.161877347011831 0.599237500156685 0.187101763657493) 7 12 2
(0.46544536808457 0.120373222091676 0.334481875018535 0.0796995348052194) 8 16 2
(0.00911076617748152 0.447433038500884 0.218895847372309 0.324560347949326) 8 17 1
(0.0569644389045281 0.226227787006233 0.630121637617452 0.086686136471786) 8 2618 2
(0.0334835840011619 0.0853995259625821 0.839731561078612 0.0413853289576439) 8 2618 2
(0.812243297168978 0.0173582446669906 0.0402375158564659 0.130160942307565) 8 2840 1
(0.800908171391967 0.0613325942834655 0.0569997318149895 0.0807595025095776) 8 2840 1
(0.104329666212409 0.167464015568303 0.163354573475602 0.564851744743686) 8 2840 2
(0.00117222419329532 0.239868276751779 0.705051539566286 0.0539079594886397) 8 4140 1
(0.263910846566248 0.0429434403390089 0.683657688127801 0.00948802496694133) 8 4140 2
(0.403845077759503 0.219211880151264 0.353992752333604 0.0229502897556297) 8 14 2
(0.109057589261924 0.0831082156583557 0.386342441816151 0.42149175326357) 9 18 1
(0.0525151719892875 0.22110157559733 0.305190759512857 0.421192492900526) 9 18 2
(0.497490552396786 0.224791401311502 0.183161837072029 0.0945562092196825) 9 19 2
(0.0753336480956516 0.0189082515285232 0.41033334804506 0.495424752330765) 9 2860 1
(0.569997402351439 0.193594421679087 0.201777027243599 0.034631148725875) 9 2860 2
(0.58679324398683 0.185254674328431 0.0473197766671281 0.18063230501761) 9 4160 1
(0.0704324056023686 0.62022607669261 0.113198166384037 0.196143351320984) 9 4160 2
(0.0397557026954587 0.0974694911692859 0.707342401796362 0.155432404338893) 9 16 1
(0.178753467672477 0.172881660910051 0.622282290274196 0.0260825811432764) 9 16 2
(0.395762881110169 0.201620239582183 0.194802411148255 0.207814468159392) 10 20 1
(0.0339696995923429 0.237106571715131 0.126059117709142 0.602864610983384) 10 21 1
(0.244571612502445 0.160253828136956 0.314109883035685 0.281064676324914) 10 21 1
(0.121993803981978 0.110166744794676 0.0178857073378195 0.749953743885527) 10 21 2
(0.344493181238632 0.18144102317963 0.374752675125024 0.0993131204567141) 10 2681 2
(0.319483672359676 0.215568186198493 0.281204745306819 0.183743396135012) 10 1 2
(0.465805691230458 0.153105277154043 0.327642161867449 0.0534468697480493) 11 22 1
(0.17330597231796 0.262842860959193 0.0484186025231268 0.51543256419972) 11 23 1
(0.342590474935175 0.0551392985520598 0.279391789133923 0.322878437378843) 11 23 2
(0.330731905495036 0.586558268523881 0.0129754606501368 0.069734365330946) 11 2701 2
(0.113655185303696 0.401400767212368 0.411861474149072 0.073082573334863) 11 4001 1
(0.116822152337969 0.589929466772679 0.249870747942346 0.0433776329470055) 11 4001 1
(0.413653310769139 0.388348145152657 0.119340235344984 0.0786583087332193) 11 4001 2
(0.231920725209268 0.40490337802884 0.165298985449241 0.197876911312651) 11 4001 2
(0.33965960587564 0.235148153134567 0.367686069074107 0.0575061719156867) 11 3 1
(0.184345241661801 0.0547945446115223 0.67909924905914 0.0817609646675366) 11 3 1
(0.620510532551728 0.173723675250452 0.0586162956682472 0.147149496529573) 11 3 2
(0.254909187457784 0.0514295744270631 0.275903101048518 0.417758137066635) 11 20 1
(0.586195698034182 0.201200739651276 0.172560505204357 0.0400430571101846) 11 20 2
(0.141505071624029 0.0511242564064498 0.657486508437853 0.149884163531668) 12 24 1
(0.486147525491539 0.154477170848229 0.323734295464323 0.0356410081959091) 12 24 2
(0.290160296106247 0.238723977199762 0.00757426395859535 0.463541462735395) 12 2721 1
(0.406825116245475 0.0733167073699041 0.147679974283774 0.372178202100847) 12 2721 2
(0.014155719397592 0.559436514699935 0.267315397027196 0.159092368875277) 12 4021 1
(0.0853177988446953 0.211846951577667 0.0399496122637239 0.662885637313913) 12 4021 2
(0.425358431556256 0.023797453828584 0.159153632397586 0.391690482217574) 12 5 1
(0.184738491963238 0.173670624767938 0.290708029458133 0.350882853810691) 12 5 1
(0.385460599633603 0.398147770389329 0.176294284786287 0.0400973451907805) 12 5 2
(0.511087976862904 0.388976320420911 0.0364338656245688 0.0635018370916166) 12 22 1
(0.297329010392777 0.518683808672281 0.084407693692158 0.0995794872427841) 12 22 2
(0.227696491466455 0.390000537696708 0.193184443364309 0.189118527472528) 13 26 1
(0.425103583145263 0.00422224461121183 0.342545310960419 0.228128861283106) 13 27 1
(0.296212828457569 0.00392612210894182 0.241542165249926 0.458318884183563) 13 27 1
(0.142300001270907 0.15370238688565 0.0674069719626283 0.636590639880815) 13 27 2
(0.00811302364371502 0.57061427772651 0.376679096508008 0.0445936021217667) 13 27 2
(0.132846737159225 0.00595555971969727 0.249721507068879 0.611476196052198) 13 4041 1
(0.441660515812507 0.253389665117153 0.075660378347714 0.229289440722626) 13 4041 2
(0.214435869023669 0.388911994745104 0.241850190934857 0.15480194529637) 13 7 1
(0.180866746174417 0.149307353733751 0.0854361197197504 0.584389780372082) 13 7 2
(0.0332167833006294 0.0714050893108576 0.830831701179795 0.0645464262087185) 13 7 2
(0.347612720620604 0.343955222858078 0.0845936850205444 0.223838371500774) 13 24 2
(0.0563808586071216 0.00223529968407354 0.594217617924194 0.347166223784611) 14 28 1
(0.208493868627301 0.26419302510131 0.172300775319165 0.355012330952224) 14 28 1
(0.222429168280318 0.364552235372817 0.285747565215761 0.127271031131104) 14 28 2
(0.362682345914012 0.43914290153501 0.167671233181128 0.0305035193698497) 14 28 2
(0.03130184063349 0.388885204129213 0.110311811055692 0.469501144181605) 14 29 1
(0.529311129117281 0.259583429532475 0.201365090297016 0.009740351053228) 14 29 2
(0.116817122136011 0.254536264155424 0.503750245080372 0.124896368628193) 14 2761 1
(0.0660085351907629 0.122337462324381 0.327340830003991 0.484313172480865) 14 4061 1
(0.391297570440948 0.186819013842426 0.010288667937941 0.411594747778685) 14 4061 2
(0.193702153595266 0.157699049294133 0.242157359170448 0.406441437940153) 14 9 1
(0.0703784261015499 0.169258511608762 0.387134453038677 0.373228609251011) 14 9 1
(0.295959629653244 0.250163459381176 0.328891815610343 0.124985095355237) 14 9 2
(0.0160627672798629 0.142011416305115 0.0816910088044833 0.760234807610539) 14 9 2
(0.518965257596477 0.0439036630233799 0.0802166255617959 0.356914453818347) 14 26 1
(0.298491020762915 0.34196704506844 0.0171415288738282 0.342400405294817) 14 26 2
(0.293851601137686 0.443083971269415 0.113596220199008 0.149468207393891) 15 30 1
(0.24472922590378 0.31895099153765 0.0488485139044492 0.387471268654121) 15 31 1
(0.1635937399038 0.129008169418962 0.121512411802925 0.585885678874312) 15 31 2
(0.408346727359605 0.326349775301462 0.244030610348873 0.0212728869900598) 15 2781 1
(0.0194686507244882 0.145654220169192 0.222637643604066 0.612239485502254) 15 2781 2
(0.574308676538322 0.0424793884543462 0.302589646562354 0.0806222884449785) 15 4081 1
(0.263149087685289 0.259813096176583 0.217140357208211 0.259897458929917) 15 4081 2
(0.292077399874303 0.193831761959472 0.491087341530753 0.0230034966354726) 15 11 1
(0.41529561417441 0.146948048872851 0.342480225928249 0.0952761110244895) 15 28 2
(0.00314825355778259 0.281496583886211 0.021426164667265 0.693928997888742) 16 32 2
(0.035707418803066 0.109571619610311 0.600526494257833 0.25419446732879) 16 2801 1
(0.300250131883661 0.019480916268347 0.606049985034661 0.0742189668133308) 16 2801 2
(0.786428957261786 0.04904861424397 0.153506602503451 0.0110158259907927) 16 13 1
(0.434480320048243 0.144473889478544 0.278894183808256 0.142151606664957) 16 13 2
(0.118950497492199 0.577579666925869 0.0406953599013974 0.262774475680534) 16 30 1
(0.0811670123397418 0.399499885632683 0.000722274024259197 0.518610828003316) 16 30 1
(0.474804621463779 0.222051612678359 0.00447736751898894 0.298666398338874) 16 30 2
(0.208168110413873 0.0974857617007524 0.460612347168013 0.233733780717362) 17 34 1
(0.104771027415275 0.0136665841973905 0.268961621776322 0.612600766611013) 17 2821 1
(0.111584949472659 0.13237354533938 0.655247182224892 0.100794322963069) 17 2821 2
(0.539502789586191 0.121877089441316 0.280787965665888 0.0578321553066042) 17 4121 2
(0.0585414957819292 0.54843421228961 0.304606625294584 0.0884176666338767) 17 32 2
(0.496959977353098 0.459355076886326 0.00672218964714246 0.0369627561134331) 18 37 1
(0.188598405353796 0.23062435228033 0.153658341414138 0.427118900951736) 18 2841 2
(0.29274948321174 0.00407315622607082 0.347913807666583 0.355263552895606) 18 2841 2
(0.0795099519862731 0.0656510663972221 0.198024966018397 0.656814015598108) 18 4141 2
(0.426046539908396 0.344155661331331 0.00958220478906353 0.22021559397121) 18 17 1
(0.354637468332316 0.287373500327315 0.23592431870829 0.12206471263208) 18 17 2
(0.0236010838590646 0.286384909252799 0.297997615505523 0.392016391382614) 18 17 2
(0.109829324736847 0.220657320173046 0.138562210915672 0.530951144174435) 18 34 2
(0.00101741410141254 0.0410713031708014 0.399329898937016 0.55858138379077) 19 38 2
(0.505660437694024 0.223842199063676 0.216886955642219 0.0536104076000811) 19 39 1
(0.195077590664849 0.58783620081869 0.187122083545721 0.0299641249707396) 19 39 2
(0.0785515559347429 0.0614546775702193 0.441788220875989 0.418205545619048) 19 2861 1
(0.468775037540817 0.06769376553064 0.371965549323592 0.091565647604951) 19 2861 2
(0.426477045583361 0.0995354192890543 0.445240938123547 0.0287465970040382) 19 18 2
(0.178157801098709 0.352600212157687 0.430298679865412 0.0389433068781915) 19 36 1
(0.0654962706724783 0.00986206125569064 0.14485893100239 0.779782737069441) 19 36 2
(0.153043511337921 0.343414943044837 0.0377025963598743 0.465838949257367) 20 40 1
(0.502944360155613 0.206218242461628 0.265793898935794 0.0250434984469648) 20 40 2
(0.519240719120632 0.427844372202563 0.0208249679159159 0.0320899407608886) 20 41 1
(0.345153955225871 0.255234708898765 0.129152852985092 0.270458482890272) 20 41 2
(0.377299609919519 0.0346573262047194 0.12338779487608 0.464655268999682) 20 2522 1
(0.0383965514133105 0.172478378970971 0.737343666063983 0.0517814035517351) 20 2522 2
(0.184972023782081 0.402162794236139 0.103967595054905 0.308897586926875) 20 2682 1
(0.401818901830228 0.192669407324227 0.0934666489292666 0.312045041916278) 20 2682 1
(0.36638422040223 0.204995900296287 0.0338232463727833 0.3947966329287) 20 2682 2
(0.696388671995523 0.131882733299932 0.1141953070565 0.0575332876480445) 20 3982 2
(0.400638832024369 0.0419865598500331 0.116091428675741 0.441283179449857) 20 21 1
(0.669044425142481 0.0012070950715184 0.024287708859654 0.305460770926346) 20 21 2
(0.31789526877866 0.0264305210169617 0.122620479265074 0.533053730939304) 21 42 1
(0.230485021826475 0.526169859606546 0.193900526794294 0.0494445917726843) 21 42 2
(0.0206913729932013 0.563049919492734 0.21941773204167 0.196840975472394) 21 43 1
(0.224911693187883 0.0549600993452068 0.137732673282187 0.582395534184723) 21 43 2
(0.156492139197742 0.58352509110596 0.200349912624926 0.0596328570713714) 21 2702 2
(0.169374657807408 0.188306883948729 0.168076998181156 0.474241460062707) 21 4002 1
(0.0203708840017366 0.350648183153726 0.0120925910913853 0.616888341753152) 21 4002 2
(0.589340817516222 0.292848359501768 0.114406904926701 0.00340391805530796) 21 23 2
(0.238062391981763 0.545163616409747 0.184027582958906 0.0327464086495839) 21 40 2
(0.560088364077042 0.206620582971978 0.0927923825705568 0.140498670380423) 22 44 1
(0.144754495708033 0.332057061408314 0.142590904993031 0.380597537890622) 22 45 2
(0.0996849723975498 0.238546509877616 0.619852084393072 0.0419164333317624) 22 45 2
(0.184239956810296 0.474785249803798 0.28851429298297 0.0524605004029359) 22 2722 1
(0.0349227246564781 0.686060120148731 0.194849095783333 0.0841680594114575) 22 4022 1
(0.318580606464438 0.243902919797997 0.342718738776979 0.0947977349605856) 22 4022 1
(0.371382937632722 0.458111770817168 0.162211995059781 0.00829329649032936) 22 42 1
(0.178960106939234 0.00947457051159527 0.750714441973924 0.0608508805752466) 23 46 1
(0.0493255189981942 0.580605648269942 0.190977581615826 0.179091251116038) 23 46 2
(0.338612602652239 0.108687602731368 0.288663385170485 0.264036409445908) 23 47 2
(0.749498831418206 0.0160329934595819 0.187543832437091 0.0469243426851209) 23 2742 1
(0.0575441536995349 0.136736481611811 0.190494857040633 0.615224507648021) 23 2742 2
(0.196497137241398 0.27507650348414 0.115584838113169 0.412841521161293) 23 4042 1
(0.00697023676350694 0.533430989628122 0.118760463688408 0.340838309919963) 23 4042 1
(0.524334423419274 0.0346157326111676 0.304941624542213 0.136108219427345) 23 4042 2
(0.23036743557613 0.301682607910631 0.327822818563016 0.140127137950224) 23 44 1
(0.142802441974543 0.614623128830219 0.183275475255229 0.059298953940009) 23 44 2
(0.23266854644113 0.397099737298433 0.328162535124539 0.0420691811358988) 24 48 2
(0.639610506746084 0.043468623139542 0.29967001119229 0.0172508589220836) 24 49 1
(0.0218508127106655 0.203429840761972 0.366883702749286 0.407835643778077) 24 49 2
(0.196933501326946 0.0179662994262327 0.643436783289265 0.141663415957557) 24 2762 1
(0.0768588301274823 0.129097477525136 0.446415132661073 0.347628559686309) 24 2762 2
(0.334905360207414 0.089391415137446 0.0202807180945511 0.555422506560589) 24 4062 2
(0.191474961834685 0.338401314477174 0.292537210946349 0.177586512741791) 24 29 1
(0.0873011050373079 0.0417040878382689 0.346847921521159 0.524146885603264) 24 46 1
(0.349228109434394 0.394704298193846 0.110658762401059 0.1454088299707) 24 46 2
(0.311533798761454 0.00186496411189454 0.0243442447319421 0.662256992394709) 24 46 2
(0.23636882933336 0.138157559925841 0.0944798305462865 0.530993780194512) 25 50 1
(0.298142021044755 0.00879077772753383 0.578025162232202 0.115042038995509) 25 50 2
(0.184222253934041 0.421151937185622 0.290470307664918 0.104155501215419) 25 51 1
(0.113715918627174 0.0776774122338451 0.444656120020267 0.363950549118715) 25 51 2
(0.665833608113174 0.0667671797310878 0.227961463023989 0.039437749131749) 25 51 2
(0.472209620136169 0.185681862454795 0.189286076161987 0.152822441247049) 25 2782 1
(0.0518530324136781 0.10837446099333 0.346893775580699 0.492878731012294) 25 31 2
(0.073251019395672 0.426852828636231 0.00771287761218834 0.492183274355909) 25 48 1
(0.214795514159308 0.442520777391832 0.254170857826065 0.0885128506227957) 26 52 1
(0.0209563591391975 0.17461531341685 0.0452199905638976 0.759208336880055) 26 2802 2
(0.169886180721271 0.524402217532187 0.23283618643398 0.0728754153125616) 26 4102 2
(0.248830471885524 0.0816471096609912 0.627514210898764 0.0420082075547207) 26 33 2
(0.234045998667622 0.120842718624511 0.208676777346654 0.436434505361213) 27 54 2
(0.0923546368364776 0.0858323360169971 0.667867528246402 0.153945498900123) 27 54 2
(0.529136823751067 0.223345508453408 0.232480595665543 0.0150370721299823) 27 55 1
(0.243041540017722 0.526646525939095 0.0335004261126525 0.19681150793053) 27 55 2
(0.455866428858988 0.0964385592777235 0.402727356898063 0.0449676549652256) 27 2822 2
(0.101249604964555 0.154743468111589 0.472811691019157 0.271195235904699) 27 4122 2
(0.375791928483564 0.00469346221947865 0.239423882750662 0.380090726546295) 27 4122 2
(0.171319075688579 0.500623340624302 0.0746654331222338 0.253392150564886) 27 35 1
(0.458072195478873 0.21649010868146 0.19890854436512 0.126529151474547) 27 35 2
(0.187990840826625 0.781792825823002 0.00344899581082174 0.0267673375395516) 27 35 2
(0.168619602780202 0.14887530670923 0.0248372576239571 0.657667832886611) 27 52 1
(0.53082845756912 0.00782172683519014 0.270046286204109 0.19130352939158) 28 56 1
(0.131681407365859 0.0214426988257404 0.613265786220433 0.233610107587968) 28 56 2
(0.244860938949539 0.288132318940851 0.237843155808202 0.229163586301408) 28 57 1
(0.226466929520351 0.320999865135668 0.166864002810403 0.285669202533579) 28 57 2
(0.249993462948579 0.187164968662029 0.199870340637649 0.362971227751743) 28 2842 1
(0.583640149381386 0.0281079899914929 0.0462908992195425 0.341960961407579) 28 2842 1
(0.0878876475035363 0.0680754364893669 0.140481371239803 0.703555544767293) 28 37 1
(0.109819757887872 0.328992066148398 0.443941042443704 0.117247133520026) 28 37 2
(0.314419621001638 0.601735309562509 0.0178862415247227 0.0659588279111301) 28 54 1
(0.249617581256716 0.0889689984550791 0.130936483818322 0.530476936469882) 28 54 2
(0.534209944746084 0.133850061134583 0.302086110513924 0.0298538836054093) 29 58 1
(0.299400694793627 0.0388782911714331 0.206625710706497 0.455095303328442) 29 58 2
(0.408654556447229 0.203015983884838 0.196389096935157 0.191940362732776) 29 59 1
(0.161231715820529 0.340856921952868 0.0215481393250111 0.476363222901592) 29 59 2
(0.0334985039668469 0.13549251235496 0.471312935068244 0.359696048609949) 29 2862 1
(0.468640859810594 0.386085459128627 0.138255926547385 0.00701775451339441) 29 2862 1
(0.253275469402796 0.44443815636041 0.015029997900857 0.287256376335937) 29 2862 2
(0.250800340415692 0.0943230502753705 0.334686219683394 0.320190389625544) 29 2862 2
(0.828287553784966 0.129907714590203 0.0200253037524447 0.0217794278723854) 29 4162 1
(0.422021033363639 0.158145907151053 0.211183890702701 0.208649168782607) 29 4162 2
(0.0987870408779291 0.137946676117572 0.241065639494176 0.522200643510322) 29 38 1
(0.147228167804263 0.534231130644557 0.277320742334794 0.0412199592163862) 29 38 2
(0.163188538298511 0.443654050521726 0.313685433370371 0.0794719778093918) 29 56 1
(0.216970035769096 0.390269004177506 0.209355364747621 0.183405595305777) 29 56 2
(0.325990607535909 0.0975917408838243 0.157675439570527 0.418742212009739) 30 60 2
(0.255886988191757 0.10344562219573 0.35786550131283 0.282801888299683) 30 61 1
(0.339639487366201 0.141270449147614 0.265014228765893 0.254075834720292) 30 61 2
(0.402513185844056 0.302569204658767 0.251992643134564 0.0429249663626129) 30 2523 1
(0.314791514309553 0.336111935994578 0.00348350804103202 0.345613041654837) 30 2523 1
(0.333023032439482 0.0266394220545098 0.0607459588341914 0.579591586671817) 30 2683 1
(0.34449200171378 0.391052142642351 0.00790216102927587 0.256553694614593) 30 2683 2
(0.290480935919686 0.18479526014392 0.217055469647025 0.307668334289369) 30 3983 1
(0.246859423788733 0.0563646817555391 0.000879402893490188 0.695896491562238) 30 41 1
(0.248929342488703 0.34258356153357 0.0373924696619953 0.371094626315731) 30 41 2
(0.0320987988122352 0.179709457188228 0.575583752020806 0.21260799197873) 31 62 1
(0.299194365595571 0.121227201229204 0.0480239339009016 0.531554499274323) 31 62 2
(0.505261781553451 0.264734141522111 0.0281180866618007 0.201885990262638) 31 63 2
(0.168643213942817 0.149904523635795 0.0836585599359929 0.597793702485394) 31 2703 1
(0.116762091951263 0.383494889568271 0.387008970878512 0.112734047601954) 31 2703 2
(0.417874971280426 0.12093284876411 0.40037858739359 0.0608135925618749) 31 2703 2
(0.1567025398253 0.577413070667119 0.260874170742955 0.00501021876462625) 31 4003 1
(0.457086054134855 0.345594131745865 0.170313876730564 0.0270059373887164) 31 4003 2
(0.557903024944023 0.281622316253022 0.00690666199118442 0.153567996811771) 31 4003 2
(0.19296567557377 0.311869534243209 0.0433891083591729 0.451775681823848) 31 43 1
(0.154469496395411 0.172941138770991 0.457955221698727 0.214634143134872) 31 60 1
(0.0326337045814342 0.368087767682846 0.158212921332842 0.441065606402877) 32 64 2
(0.0233277018241916 0.445849117890661 0.354525920563814 0.176297259721333) 32 65 1
(0.0337608953843185 0.311833278058132 0.641045779040133 0.0133600475174161) 32 65 1
(0.139012385183933 0.0590561717041145 0.760673073973397 0.0412583691385555) 32 65 2
(0.00555086269524441 0.154440885276506 0.0871730663378816 0.752835185690368) 32 2723 2
(0.325343776184742 0.161381987896387 0.419012080693144 0.0942621552257273) 32 2723 2
(0.369201504640464 0.0797003409647444 0.547448763778195 0.00364939061659642) 32 4023 1
(0.124847016407363 0.152955396034691 0.328821079042924 0.393376508515021) 32 45 1
(0.281451635391041 0.130622481851365 0.582575117974299 0.00535076478329467) 32 45 2
(0.0222131793767215 0.293867194648249 0.214398359064481 0.469521266910548) 32 62 2
(0.124980934962614 0.574357082266756 0.17105959162014 0.129602391150489) 33 66 1
(0.191932112021091 0.284738371182549 0.0772826843885275 0.446046832407833) 33 66 2
(0.21577394993882 0.269360107905384 0.277101452826337 0.237764489329458) 33 67 1
(0.182007415913662 0.462580807581902 0.114250086400847 0.241161690103589) 33 67 2
(0.489023905597018 0.0824103366839241 0.236966610185659 0.191599147533399) 33 2743 1
(0.436953678725623 0.11123990015139 0.220329904286697 0.23147651683629) 33 4043 1
(0.446850640237496 0.0249193429439955 0.220136782986262 0.308093233832247) 33 47 2
(0.512648235406367 0.116522923886565 0.223348702300354 0.147480138406715) 33 64 1
(0.00623872531020164 0.116065580845676 0.0247726585186337 0.852923035325489) 34 68 1
(0.375627230922533 0.0570841617213579 0.471198317806714 0.096090289549395) 34 68 1
(0.24578813235126 0.387735027349769 0.173476375274499 0.193000465024473) 34 68 2
(0.707089413934552 0.0319815249859819 0.185220578131952 0.0757084829475144) 34 68 2
(0.197934319968791 0.283633573676048 0.232163918575905 0.286268187779256) 34 69 1
(0.323816753676553 0.358649334951693 0.160738995149431 0.156794916222324) 34 69 2
(0.242733108285141 0.231400757029408 0.197969438872554 0.327896695812897) 34 2763 1
(0.0722346215055825 0.325924210917327 0.297892692381779 0.303948475195312) 34 2763 2
(0.320366665715749 0.0331757698298502 0.308333774025414 0.338123790428986) 34 4063 1
(0.248675539051178 0.354567557835861 0.149925740558527 0.246831162554435) 34 4063 2
(0.357958566332011 0.104413908664105 0.0367242741530466 0.500903250850838) 34 49 1
(0.748684159438505 0.171454881509212 0.0284341576949934 0.0514268013572902) 34 49 2
(0.48252717276931 0.392331054531718 0.114725097763624 0.0104166749353485) 34 66 1
(0.0400601714527792 0.208865328085461 0.0081483343317567 0.742926166130004) 35 70 1
(0.479024447083542 0.134342983334165 0.1228132583064 0.263819311275893) 35 70 2
(0.163873227871906 0.499297404667116 0.280131833372123 0.0566975340888556) 35 71 1
(0.0495390633749826 0.251977821849923 0.230664133543611 0.467818981231484) 35 71 2
(0.317817181449435 0.413511555933007 0.167099908922188 0.10157135369537) 35 71 2
(0.2328715595401 0.070779585593983 0.156299158727914 0.540049696138003) 35 2783 1
(0.0520815345734712 0.0962252609076622 0.559573735779307 0.29211946873956) 35 4083 1
(0.164198355969792 0.0268564556419783 0.117102652161252 0.691842536226978) 35 4083 1
(0.375260680682719 0.338114329694635 0.0253322084272825 0.261292781195364) 35 4083 2
(0.592745689229679 0.0128340059682875 0.364993527691936 0.0294267771100971) 35 51 1
(0.552669217130963 0.271902876659593 0.0900086903583483 0.0854192158510958) 35 68 1
(0.498091658480085 0.331549087884362 0.159114588576445 0.0112446650591076) 35 68 2
(0.457709265026483 0.018347411429753 0.273953731486497 0.249989592057267) 36 72 1
(0.0177343015170949 0.163567936741359 0.816513925203609 0.00218383653793744) 36 72 2
(0.0678430557947061 0.463140539625076 0.275760357529496 0.193256047050722) 36 73 1