/*--------------------------------*- C++ -*----------------------------------*\
| =========                 |                                                 |
| \\      /  F ield         | OpenFOAM: The Open Source CFD Toolbox           |
|  \\    /   O peration     | Version:  v1912                                 |
|   \\  /    A nd           | Website:  www.openfoam.com                      |
|    \\/     M anipulation  |                                                 |
\*---------------------------------------------------------------------------*/
FoamFile
{
    version     2.0;
    format      ascii;
    class       Cloud<dsmcParcel>;
    location    "0/lagrangian/dsmc";
    object      positions;
}
// * * * * * * * * * * * * * * * * * * * * * * * * * * * * * * * * * * * * * //

14696
(
(0.000740706677625327 0.0108237109239587 1.99749562359734e-05) 0
(7.03773586917543e-05 0.0100843593410227 1.03755424933712e-05) 0
(0.000960572456979066 0.0100001889607201 2.96597083950948e-05) 0
(0.000740898254050769 0.010044645131361 3.47948820206718e-05) 0
(0.000563809157035275 0.0106328277071345 3.91669511096485e-06) 0
(0.000865423483592102 0.0106423602843084 5.98991392792741e-06) 0
(0.00139870253126085 0.0107773029286673 1.20669996767414e-05) 1
(0.00173876357008439 0.0102195901992965 2.06825900725647e-05) 1
(0.00151858834793846 0.0100884505954314 7.37744199577113e-06) 1
(0.0013201821831394 0.0101916616199524 2.81372692507333e-05) 1
(0.00128970265190537 0.010256193586259 5.28826985287479e-06) 1
(0.00188728179891715 0.0101214857035782 4.76364759199937e-05) 1
(0.00104653565027423 0.0107695380740569 8.17712462549425e-06) 1
(0.00107094465455698 0.0104693403129157 4.14121764702651e-05) 1
(0.00296786298558612 0.0104641571378182 5.15279535470854e-06) 2
(0.00296382736098047 0.0107297804109554 4.47563818321693e-05) 2
(0.0025097955046146 0.0109157431838562 2.32524658950352e-05) 2
(0.0022529449523277 0.0108147283336714 2.20470125201586e-07) 2
(0.00273651175002133 0.0104155368330223 5.73351365055492e-06) 2
(0.00237557515370582 0.0102024027719491 4.99989529133665e-05) 2
(0.00201966104418191 0.0107184631900735 1.91618850999607e-05) 2
(0.00347190270002663 0.010953444597662 3.91944916055772e-05) 3
(0.00346555532297563 0.0109317939017024 1.41385775375693e-05) 3
(0.00309662522425823 0.0100297038099649 1.60846578022904e-06) 3
(0.00350753836684234 0.010645525512223 7.97131661789672e-06) 3
(0.00359422705351457 0.0105696866506139 1.84795379004311e-05) 3
(0.00325969882125799 0.0101522483217638 4.98457679274368e-05) 3
(0.00331458814121923 0.0105830801385929 4.69169094752717e-05) 3
(0.00306255275791519 0.0107304555453845 1.40203846839011e-05) 3
(0.00310504450413091 0.0106665378296181 3.75941226161417e-05) 3
(0.00495505621865617 0.0101342570459225 4.05884700341424e-05) 4
(0.00452505012706554 0.010931158169507 1.75648090499132e-05) 4
(0.00430007951097538 0.0106838345465629 1.33003320099721e-05) 4
(0.00468770857964968 0.0107477858046949 3.63794171717085e-06) 4
(0.00478501317061486 0.0106508674272794 9.23259909238094e-06) 4
(0.00485163595159772 0.0107569039844789 4.04757350597759e-06) 4
(0.0048191467004882 0.0102123184985618 4.11560683346609e-05) 4
(0.00442714834666884 0.0105363183752144 4.83723285533182e-05) 4
(0.00407501888721387 0.0106053296206954 1.40767998857572e-05) 4
(0.00414397614074957 0.0105719256168424 1.70132906261257e-05) 4
(0.0043492212325244 0.0103783218169738 3.15036994407628e-05) 4
(0.0057100497372433 0.0106963705696736 3.31985568278059e-05) 5
(0.00576115881018273 0.0107202451128499 1.53057357479377e-05) 5
(0.00596465461324037 0.0100679189871397 3.99021949708714e-05) 5
(0.00536466336364628 0.0106373833230547 3.08761536931127e-05) 5
(0.00567110654489028 0.0100938152737337 1.20627471584108e-05) 5
(0.00591811802508554 0.0100561899381595 5.55195335157313e-06) 5
(0.00575493301373168 0.0104289272943864 4.37523635453552e-05) 5
(0.00520725155066477 0.0107849129580717 3.97283087611497e-05) 5
(0.0051509639113958 0.0108219296682201 1.92599070669746e-05) 5
(0.00522446272486837 0.0105868168150137 3.05520093246776e-05) 5
(0.00507933834271355 0.0101510691822012 1.67669517393735e-05) 5
(0.00679087893343979 0.0107533918887135 3.41783569157613e-05) 6
(0.00634362264641613 0.0109563136175643 2.40220300776967e-05) 6
(0.0063857632279844 0.0109155546747771 1.43504073543362e-05) 6
(0.00656453197435598 0.0101441349683615 9.96117916884396e-06) 6
(0.00666743857387922 0.0102570490330675 3.70994631430469e-05) 6
(0.0062208573013612 0.0105089271214264 5.67433373625569e-06) 6
(0.00669341254904929 0.010472235054948 1.38606133913804e-05) 6
(0.00658066583671535 0.0104760767187565 5.02640977906539e-06) 6
(0.00621047251446972 0.0102058223322102 4.50337243047975e-05) 6
(0.00627032279794442 0.0107793150250584 4.42458508558593e-05) 6
(0.00654234699666523 0.0108546350478202 4.91055369522104e-05) 6
(0.00603409466961471 0.0101827577349334 2.01704592859749e-05) 6
(0.00749064513135826 0.0108815201429647 2.64033768043391e-05) 7
(0.00720539572222137 0.0109508966628469 6.79463011637033e-06) 7
(0.00753567197784916 0.0102440627954434 1.66260774972802e-05) 7
(0.00751694199958719 0.0100753955016177 4.56647778685135e-05) 7
(0.00727841749874366 0.0105334457331873 2.85957414764579e-07) 7
(0.00738612700174844 0.0103292153607142 8.38195015649476e-06) 7
(0.00758380027384043 0.0103904859066949 9.38948858704097e-07) 7
(0.00781169020792456 0.0103266407896827 4.75756741392625e-05) 7
(0.0075559736481062 0.0106607182355284 4.84775204785082e-05) 7
(0.00716631466862792 0.0105491858914597 2.04134776450642e-05) 7
(0.007025891694587 0.0102129934582445 4.06115479200587e-05) 7
(0.00876727731595772 0.0105672045590608 3.2345204693302e-05) 8
(0.00832911573103807 0.0109954446169113 2.74005789205188e-05) 8
(0.00865860385706971 0.0100284822194523 3.72644996770751e-05) 8
(0.00885647335307919 0.0100167417920006 4.48929341018419e-05) 8
(0.00853628259089205 0.0105765201067485 2.03060824292245e-05) 8
(0.00848121358820556 0.0105382133200206 2.00227042847992e-05) 8
(0.00878037115132549 0.0102155194065818 2.60824165531023e-06) 8
(0.00875954561115157 0.0100544940715853 4.99706943951676e-05) 8
(0.00881561311141092 0.0108251011363779 4.34022288358438e-05) 8
(0.00820192253887975 0.0102248728286354 2.89432790484492e-05) 8
(0.00947602054789453 0.010945471205369 4.31181494855341e-05) 9
(0.00975264083840803 0.0109737424140054 1.6572417275375e-05) 9
(0.00975125472380161 0.0104319071132704 2.63231661245052e-05) 9
(0.00953309157637859 0.0109434249244237 1.88334120239129e-06) 9
(0.00952140687714519 0.0104867757284193 1.4249935058786e-05) 9
(0.00952134870367815 0.010474028927011 3.53301689003292e-05) 9
(0.00914841436918522 0.0103445577205062 4.82391898599408e-05) 9
(0.00901987785134773 0.010882652657483 3.63610126572046e-05) 9
(0.00908937673383624 0.0101154593149795 3.68870802626856e-05) 9
(0.000802118559444915 0.0116004983198627 2.02847954357238e-05) 10
(0.000619849460779555 0.0119830151502038 3.72954289244349e-05) 10
(0.000403350482576137 0.0118777141937488 3.58730182805911e-05) 10
(0.000828836353214335 0.011939003098009 3.94413046644041e-06) 10
(0.000646312386201054 0.0115469992657443 8.61232953096579e-06) 10
(0.000624689977621669 0.0111597418361798 1.71742616157425e-05) 10
(0.00176709715438477 0.0116139918772307 1.43174857681639e-05) 11
(0.0016020855503587 0.011913347013841 3.25252076440913e-05) 11
(0.00177356546398035 0.0118287047625324 2.25343513300755e-05) 11
(0.0012480757787286 0.0111783414133977 8.26829763737589e-06) 11
(0.00154177164013578 0.0111299101659867 4.71586203674076e-05) 11
(0.00135165945705834 0.011101788709116 4.70794461915508e-05) 11
(0.00132616689072955 0.0114048251994628 3.96586672307715e-05) 11
(0.00128125934805388 0.0114791362593665 4.42019818697683e-05) 11
(0.00153751587201193 0.0111698298029378 2.97511021963807e-05) 11
(0.00177127186989004 0.0110921726208309 4.26516417278789e-05) 11
(0.00151602105847368 0.0113102552662759 2.28702381402718e-05) 11
(0.00112745459372889 0.011821115831844 2.01678847388705e-05) 11
(0.00129309784901709 0.0113331409061273 2.52850705665816e-05) 11
(0.00292924746418799 0.0118781232077815 1.10318349671841e-05) 12
(0.00275692623725423 0.0115668080582101 3.01224533203001e-05) 12
(0.00260862161078852 0.0116161958747471 7.25400740265618e-06) 12
(0.00272327073450736 0.0113510925324065 1.01706279061369e-05) 12
(0.00243348562560127 0.0111661702285741 4.96461070150602e-05) 12
(0.00208260851168607 0.011745494149 4.78670550288826e-05) 12
(0.00237183284817571 0.0112126792157781 3.81761665196644e-05) 12
(0.00238307727543975 0.0110923692459816 3.66980064625221e-05) 12
(0.00240912192979387 0.0111927302998168 1.16413822503791e-05) 12
(0.00225554398843145 0.0113554796911476 1.4598892702801e-05) 12
(0.00214866450519639 0.0112482439924392 1.66325843065665e-05) 12
(0.00388615175426677 0.0114961512165701 1.51483386602878e-05) 13
(0.00344068065285574 0.0117874482084274 3.91612981908078e-05) 13
(0.00360642529841235 0.0118518935857712 4.23983731831137e-05) 13
(0.0037751476124789 0.0119288499993645 6.9278486299041e-06) 13
(0.00342532921045163 0.0119959434881781 1.90367804164933e-05) 13
(0.00392762107170069 0.0116778995646318 4.66788315710194e-05) 13
(0.00329649063625397 0.0115257800769766 3.89584871046873e-05) 13
(0.00334906812544669 0.0111072179345118 2.51935035371531e-05) 13
(0.00376025927317904 0.0110904333730872 3.37411576729645e-05) 13
(0.00391198651903883 0.0110166083916503 4.05774089295166e-06) 13
(0.0031738063603103 0.0113976447318111 2.4111920841581e-05) 13
(0.00497180957069644 0.0119695742710124 1.87678326544086e-05) 14
(0.00489575306568635 0.011631560040585 2.29629632632937e-05) 14
(0.00488878541585984 0.0113969621493559 2.62116590243512e-05) 14
(0.00481865882704299 0.0113490124061381 1.89757962753992e-05) 14
(0.00448515206449835 0.0119843490796833 2.97731937777021e-05) 14
(0.00447576100590888 0.0117353444354414 2.33010327427828e-05) 14
(0.0041833049296962 0.0116870551747766 2.92042805340027e-06) 14
(0.00484465827008024 0.0115173174400762 4.83497866202309e-05) 14
(0.00420593745315841 0.0116175322009371 4.02175607389763e-05) 14
(0.00433900843596808 0.0110968510767976 3.72724936954117e-05) 14
(0.00442232366608945 0.0110351892130508 3.97776137670231e-05) 14
(0.0046018567257922 0.0111479798148266 1.3648245509093e-05) 14
(0.00484995720005495 0.0110080313836399 3.84133095625235e-05) 14
(0.00425948262879824 0.0116966137081784 1.69849627180017e-05) 14
(0.00414924551038146 0.0114916459156763 2.54393722275051e-05) 14
(0.00585307419943116 0.0114099902281617 1.48197003981367e-05) 15
(0.00550983588160601 0.0118776353870481 2.7934219775523e-05) 15
(0.00578919496062914 0.0119182031300481 1.01654640877413e-05) 15
(0.00522544625066986 0.0114694768610187 1.02086681839901e-05) 15
(0.00584461145446856 0.0112323719689663 4.86716268112205e-07) 15
(0.00567036627327649 0.0113677766267141 3.5642283086542e-05) 15
(0.00534871490105086 0.0116086123599808 4.34212728078678e-05) 15
(0.0056371260414679 0.0111460386999372 3.30064769051689e-05) 15
(0.00520764780708721 0.0113029239181117 3.22702072019972e-05) 15
(0.00699842587322111 0.0110230002914462 3.58464644667449e-05) 16
(0.00627204817673032 0.0118725746709882 8.92685470076651e-07) 16
(0.00683039401778982 0.0117561750509765 7.50625329709153e-06) 16
(0.00654672108113434 0.0113932144786309 2.78868453562568e-05) 16
(0.00663828595049734 0.0112172401600241 1.79695883344539e-05) 16
(0.0060594752487461 0.011362945084328 5.00853043237486e-06) 16
(0.00604058350616987 0.0115599166081974 2.0652890097065e-06) 16
(0.00623740231073189 0.0115360687090708 2.70273038294876e-05) 16
(0.00789591594479306 0.0117984301830923 1.68908917962149e-05) 17
(0.00766498628031865 0.011933947902095 2.61927568538186e-06) 17
(0.00781183397992429 0.0117110396569612 2.78962373681647e-06) 17
(0.00755053936045898 0.0116083715157656 3.65124302603452e-05) 17
(0.00702927074789097 0.0111176884145248 2.11147519909713e-05) 17
(0.00828544274478998 0.0117515200113235 1.46082467218562e-05) 18
(0.00867507644504277 0.011247957544091 4.71496013384491e-06) 18
(0.00884955210216806 0.0114942885492725 7.31873708029349e-06) 18
(0.00823777994201153 0.0118945939576096 4.80122512003432e-05) 18
(0.00822260547474326 0.0112130232699542 2.21410534357235e-05) 18
(0.00853530776550653 0.0111773187341662 1.49691723399119e-05) 18
(0.00870181454881767 0.0110118005419295 2.01908466656073e-05) 18
(0.00805491466236842 0.0115858658065429 3.62214008729265e-05) 18
(0.00995841998977849 0.0119994912929493 1.99919302993861e-05) 19
(0.00974716978115299 0.0115233275820893 1.53220313223546e-05) 19
(0.00990246120466758 0.0112846608788781 1.57312501924443e-05) 19
(0.00945748132358642 0.0118992695444624 1.96378889836857e-06) 19
(0.00969791871569895 0.011606353068094 1.17193759385204e-05) 19
(0.00968722605791927 0.0112132385227917 1.20992559897859e-05) 19
(0.00908907890054935 0.011558320887293 2.59688790207383e-05) 19
(0.00903274813533624 0.0118125308724057 4.78694901704035e-05) 19
(0.000923478244331039 0.0125800633012862 2.71180352463164e-05) 20
(0.000748527819922194 0.0125172660790136 2.71154788730283e-05) 20
(0.000291710300321205 0.0127403796404397 1.5626763411856e-05) 20
(0.0005721883134883 0.0128274230223871 1.50864915299014e-05) 20
(0.000188649804959759 0.0126533050739594 3.88346434417761e-05) 20
(1.91982757066553e-05 0.0128083233453224 3.78270970885319e-05) 20
(0.000401383598817915 0.0125053511938728 4.62430059455203e-06) 20
(0.000512954492831392 0.0126064211417607 1.00454725457557e-05) 20
(0.000611811989502598 0.0122170153565739 9.15960551005576e-06) 20
(0.000462389643054262 0.0125199229307023 3.25902832001119e-05) 20
(0.000316410844687925 0.0122003194160122 3.78847012068891e-05) 20
(0.000664270692357241 0.0123345222125712 3.19991491748793e-05) 20
(0.00184105236561067 0.0128146218445937 3.46000682664317e-05) 21
(0.00188475748908676 0.0123091430377075 1.79293814740108e-05) 21
(0.001207186661969 0.0129896543135034 2.13302197005333e-05) 21
(0.00183258405406085 0.0128875441534061 1.25094259938064e-05) 21
(0.00133822883929517 0.0122785959822238 3.91230347994356e-06) 21
(0.00172700578714757 0.0125589287889664 4.57656335548148e-05) 21
(0.00102227803309225 0.0126391663748454 4.94907278999566e-05) 21
(0.00141248123174012 0.0122946704087581 1.4903716340671e-05) 21
(0.00111903119599088 0.0121517776046405 1.67902593799686e-05) 21
(0.00271995581796148 0.0125133352349895 2.10271426209472e-05) 22
(0.00259556569073767 0.012927622752146 1.07484076423524e-05) 22
(0.00271161100392361 0.0129501575138012 3.34847285295923e-05) 22
(0.00214458047880808 0.0124330947717911 4.60599892025739e-06) 22
(0.00229647851752303 0.0121016294217397 4.91269318835881e-05) 22
(0.00259680677696978 0.0122540880381928 4.2035484838389e-05) 22
(0.00218569146881636 0.0123561967603665 1.73951731938071e-05) 22
(0.00391051994653038 0.0129010453760188 7.51654670224317e-06) 23
(0.0039753372405009 0.0122156403411149 1.9736579611548e-05) 23
(0.00372200609594251 0.0128306936986739 2.28984843248302e-05) 23
(0.00342167375839422 0.0126092175908313 1.87374707854551e-05) 23
(0.00383449144153842 0.0122192669338904 1.43860384248837e-06) 23
(0.00362667492789516 0.012511090089782 4.5087571568965e-05) 23
(0.00346308389199013 0.0123443234283017 4.98257440809123e-05) 23
(0.00356710883625185 0.0127032170556792 3.68916394145181e-05) 23
(0.00311518371778806 0.0125831336743013 2.2150326817554e-05) 23
(0.00307140122098727 0.0121307001749273 1.56987825091255e-05) 23
(0.00488366572677944 0.0124444968083451 2.43282994740501e-05) 24
(0.00433705611229513 0.012680194746627 3.18363061743708e-05) 24
(0.0047856447528827 0.0129890745936447 1.88904554552309e-05) 24
(0.00424013016662103 0.0128835669499103 4.92333753317365e-06) 24
(0.00483247310741112 0.0124848445477248 1.92147075318706e-06) 24
(0.00418773339819826 0.0127431559047588 4.16273659948146e-05) 24
(0.00438827469186369 0.0120957374809173 2.82930602302742e-05) 24
(0.00404365055251866 0.0129146453596431 1.95249237019907e-05) 24
(0.0041746140547172 0.0123200228846879 2.15340823544478e-05) 24
(0.00415576689938073 0.0128180238917754 4.21184068253689e-05) 24
(0.00588181558533332 0.0127436580254075 3.24589097430596e-05) 25
(0.00585092898947762 0.0127270961727546 4.21069105875044e-05) 25
(0.00519626662818244 0.012907888873033 2.43368467923679e-05) 25
(0.00586546462845257 0.0129431420406864 2.50757039666927e-05) 25
(0.00560031601621233 0.0126670831959434 2.80439133540288e-05) 25
(0.00538892725131513 0.0125782133274771 1.18052405034042e-05) 25
(0.00586569902279983 0.0120259265162068 2.59402623609566e-05) 25
(0.00503662550969784 0.0125365216616659 2.21691936550122e-06) 25
(0.00689260224292035 0.0124500814655285 9.79553038512248e-06) 26
(0.00681490650701355 0.0120556981701335 5.23908978479937e-07) 26
(0.00631777927679462 0.0123906546921072 4.57528454819682e-05) 26
(0.00679393765439625 0.0121244152359428 8.32117217487413e-06) 26
(0.00788297700066619 0.0123256997766805 3.81067141020839e-05) 27
(0.00795382268158176 0.0127140448466646 4.33995172782382e-05) 27
(0.00727960548400552 0.0127354315881245 2.56043039835529e-05) 27
(0.00735183270405204 0.0128784792299911 7.75105980607568e-06) 27
(0.00767562822629278 0.0126306605713276 1.13966607214747e-05) 27
(0.00752343649350143 0.0127946317294061 4.74687598758861e-05) 27
(0.00742731984699244 0.0128074105735387 4.06052017879109e-05) 27
(0.00716032497096652 0.0120856595378443 2.06858560765704e-05) 27
(0.0075544737935791 0.0122290360977394 1.77782624606992e-05) 27
(0.00712421175376369 0.0120939954204133 6.0381378976432e-06) 27
(0.0070843098013901 0.0127668148919007 5.45735295070291e-06) 27
(0.00873458577121544 0.0127267640443803 2.2835887908807e-05) 28
(0.00893415929631707 0.0126791064899034 4.56358298745665e-05) 28
(0.00835159405577618 0.0128775695305252 2.9471860579219e-05) 28
(0.00856576667010416 0.0128867665352398 1.40048733785289e-05) 28
(0.00848796795922603 0.0126878382998637 6.24983657371448e-06) 28
(0.00863378103609827 0.0126800719353178 1.45910037345346e-05) 28
(0.00818442519499157 0.0120439438237518 4.43990369879433e-05) 28
(0.00861609805490767 0.0120549098789439 8.6078506231981e-06) 28
(0.00815720981050082 0.0122410548799367 8.75480260127708e-06) 28
(0.00812480879062836 0.0126552857270982 3.93111105458281e-05) 28
(0.00929695885597845 0.012732895027627 2.99522483246188e-05) 29
(0.00981142136143175 0.0128502996526032 1.78163029051655e-05) 29
(0.00979567272177639 0.0125926567378915 1.98133820478195e-05) 29
(0.00991938414208974 0.0121021639972353 2.89263610068434e-05) 29
(0.00937644530059337 0.0128477582356616 8.37462599171174e-07) 29
(0.00924133818441869 0.0123795941109661 1.17160214952648e-05) 29
(0.00942892410893819 0.0121416677326023 6.33188673506989e-06) 29
(0.00978027677951678 0.0124600863898912 6.2700085103923e-06) 29
(0.00945594850851731 0.0124359232047649 2.92928111553758e-05) 29
(0.00942219440738452 0.0126308435761671 3.9449474165909e-05) 29
(0.00929045915993314 0.012049393520439 4.06329901721732e-05) 29
(0.00939215478545331 0.0120736140839021 5.74170215592588e-06) 29
(0.00908159426914926 0.012474751680329 1.97639851259813e-05) 29
(0.00910848501788455 0.0122918906131903 2.50622988968973e-05) 29
(0.000837004696232045 0.0133206707433385 3.6970647767411e-05) 30
(0.000410745382395561 0.0138720565059041 3.84305441854196e-05) 30
(0.000688909807169286 0.0138301802563169 2.17416986224497e-05) 30
(0.000201256592922028 0.0132441815592846 2.48087101209602e-05) 30
(0.000157395757154776 0.0135030087988096 2.53246153425323e-05) 30
(0.000746103102891558 0.0138068490617257 8.32557581098704e-06) 30
(0.000436701856500759 0.0131801481618862 8.6123000428445e-06) 30
(0.000669964271896237 0.0134529088022492 4.27379766020079e-05) 30
(0.000124309114787856 0.0131234297118944 4.10102803175047e-05) 30
(0.000532951767222078 0.0131244646712444 2.47779648780041e-05) 30
(0.00198395060059388 0.0138042411434057 1.14328695692424e-05) 31
(0.00185040281720221 0.0131976211166987 3.64587807986505e-05) 31
(0.00148263496770116 0.0137473691092233 1.40374488719263e-05) 31
(0.0016821153094568 0.0137657738693928 4.21608034857043e-06) 31
(0.0015581240644561 0.0134453900168541 2.91905229878158e-06) 31
(0.00167012966559568 0.0136093160730338 1.04468742820106e-05) 31
(0.00134423565942023 0.0130833614886773 4.60824365043675e-05) 31
(0.00139885690379799 0.0134258628411867 3.85728486466286e-05) 31
(0.0012858581744632 0.013439426171275 3.60524243763994e-05) 31
(0.00113987194614606 0.0130964828377869 2.95823813984953e-05) 31
(0.00107723474819771 0.0137498241130313 2.67594984948216e-05) 31
(0.00298368314770928 0.0131745297736236 3.07797690013218e-05) 32
(0.00218796111063343 0.0139883361490879 2.71243515598621e-05) 32
(0.00203024049520958 0.0139831195523078 3.35643137124854e-05) 32
(0.00287143763570392 0.013930493807408 4.15089633282682e-05) 32
(0.00284278368337587 0.0130899484976855 1.3877156738111e-07) 32
(0.00267594612401124 0.0135816839687855 8.13359440461856e-06) 32
(0.00273569890671502 0.0131882501429368 4.07699623839884e-05) 32
(0.00239124458724661 0.0130624235082037 3.92310547880813e-05) 32
(0.00272865170045311 0.0131407258176955 7.30382912394076e-06) 32
(0.00201110658968836 0.0134806278565989 3.47513107831695e-05) 32
(0.00393750953251869 0.0133631524502519 9.60464293158981e-06) 33
(0.00390403394398946 0.0131732487403991 3.09647786403453e-05) 33
(0.00334565146429887 0.0138921130250306 3.11376458562603e-05) 33
(0.00344641548446127 0.0139089962920432 1.02626897178839e-05) 33
(0.00343611110033191 0.0136730777105176 1.22255976399255e-05) 33
(0.0036702832604858 0.0134499533561991 3.90761580318594e-05) 33
(0.00375165533693726 0.0132234253201187 2.65759276975497e-05) 33
(0.00325632411770318 0.0136271529584103 2.39836410001769e-05) 33
(0.0049968806373449 0.0138808150564992 4.28021198990295e-05) 34
(0.00481218638453873 0.0137551022228174 1.41951952505331e-05) 34
(0.00487710593382437 0.0132963704414501 2.44685453237301e-05) 34
(0.00464645529303272 0.0135387652850992 3.07236884023371e-05) 34
(0.00438523534776365 0.0139010328400156 3.08699633169778e-05) 34
(0.00447944228821003 0.0138380916231617 1.61323685993854e-05) 34
(0.00444926324995547 0.013647232688828 6.06832770712852e-06) 34
(0.00463795847832988 0.0133340100031346 1.80586553763956e-06) 34
(0.00480664089731228 0.0134983071232869 4.19908333571063e-05) 34
(0.00427426351008412 0.0135210946726385 4.37831115237206e-05) 34
(0.00421570355731905 0.013178979283166 3.58303404084945e-05) 34
(0.00445420303877154 0.0133743420797193 2.12884440538271e-05) 34
(0.00424126358638466 0.0133664053590836 1.77994342074139e-05) 34
(0.00597996991427361 0.0137711045861882 3.81478125928197e-05) 35
(0.00576048777645823 0.0133623254818482 3.13072396562032e-05) 35
(0.00513863414802481 0.013918063386064 2.09382990698466e-05) 35
(0.00572325264646259 0.0139752304683125 1.27716832615551e-05) 35
(0.00542757985334228 0.0138410914092753 1.63004249823453e-05) 35
(0.00565648547590805 0.013812784634636 5.82178898850249e-06) 35
(0.0058777339718056 0.0133181602360263 4.86979616356632e-05) 35
(0.00589104436637313 0.0137739417142119 4.58950411007552e-05) 35
(0.00521296254876864 0.013474255329964 4.0618482982932e-05) 35
(0.00566136637230678 0.0132963728446148 3.45396574708436e-05) 35
(0.00527633460856548 0.0134517625147749 1.83171649461915e-05) 35
(0.00524904582924004 0.0132602904942991 2.09702541437797e-05) 35
(0.00677114536748676 0.013752797956057 2.39422112285254e-05) 36
(0.00699113284924145 0.0138253810759622 4.13782456250047e-05) 36
(0.00622717757494807 0.0139660784721026 2.51468966238786e-05) 36
(0.00637844515064134 0.013967120624268 4.06683276877687e-05) 36
(0.00665372118082822 0.0139680548259819 1.67467925458975e-05) 36
(0.00676937315626395 0.0139451253480425 2.52214612364552e-05) 36
(0.00676750561400344 0.0134092623464474 9.17899953686123e-06) 36
(0.00662350219794003 0.0133254374707485 1.33690621197706e-05) 36
(0.0063605803594397 0.013253445953987 3.78666099618904e-05) 36
(0.00677231948953073 0.013855786272566 4.48730923018523e-05) 36
(0.0063309486192637 0.0131020911315644 2.19779994617698e-05) 36
(0.00656461700560747 0.0132129843862412 2.12265332464656e-05) 36
(0.00610468117772502 0.0135595697862249 2.58806035544006e-05) 36
(0.00608085747821615 0.0137235695180217 2.80779725687213e-05) 36
(0.00797138660754015 0.0134352365728892 1.29674027278521e-05) 37
(0.00760320909442909 0.0139780050631532 1.22612167880679e-05) 37
(0.00735867852786914 0.0134680115568174 3.21557154293715e-06) 37
(0.0073517757623619 0.0132968796759048 5.11563664857901e-06) 37
(0.00747804694356595 0.0133354691610222 3.46978663503397e-05) 37
(0.00737720820932155 0.0130246256591555 2.36126755525063e-05) 37
(0.00729772603473372 0.0130112915830555 3.54158388025626e-05) 37
(0.00788875557403203 0.0130795458645204 4.38411473650318e-05) 37
(0.00704413297407524 0.0133175000879892 9.75427068374786e-06) 37
(0.00708265427622416 0.0134660700539596 3.7964155242443e-05) 37
(0.00892218982070332 0.0135869681148883 3.03401414088099e-05) 38
(0.0087263656714598 0.0134393403702293 3.22299980174633e-05) 38
(0.00850545247625573 0.0138571388023599 3.52323405172035e-05) 38
(0.00844695652868941 0.0138545737385447 1.01494934291313e-05) 38
(0.00844519216448162 0.0135872725205393 2.34156702219613e-06) 38
(0.00843091046164728 0.0133822211774951 1.09732468777652e-05) 38
(0.00841756625229939 0.0132861616393626 4.10483642368967e-05) 38
(0.00820967097978925 0.0131481002205793 2.33383919115617e-05) 38
(0.00862672125087155 0.0132550537320833 2.72279431887641e-05) 38
(0.00814790586020754 0.0132924709313629 1.33753609723032e-05) 38
(0.00820974172957877 0.0134088748521872 2.96736870991167e-05) 38
(0.00813355379141679 0.013319372062659 4.20613467844056e-05) 38
(0.00975168069085288 0.0139118117487775 3.30443891560851e-05) 39
(0.00983256299281974 0.013771804014084 3.1921294719907e-05) 39
(0.00989248632333716 0.0133211865350496 8.22772899005896e-06) 39
(0.0098884143013269 0.013635981631727 4.01919805488273e-05) 39
(0.00986378506128291 0.0135911081678132 3.61516969976621e-05) 39
(0.00913190648917012 0.0135230954842746 3.68472579717487e-06) 39
(0.0095570597548698 0.0135006162762148 6.76885161551329e-06) 39
(0.00957050211762809 0.013106224849648 4.90442016471886e-05) 39
(0.00913076298660068 0.0130805985919988 1.43744806304297e-05) 39
(0.00976776267072962 0.0132117699311642 1.61417683127164e-05) 39
(0.00907317268032458 0.0135034136451655 1.53803161485633e-05) 39
(0.000777766564706411 0.0146775704986698 1.37542600904296e-05) 40
(0.000966766773583281 0.014865692753716 4.63673527619439e-05) 40
(0.000903801244764592 0.0143050423884997 3.93533342299565e-05) 40
(8.5657582609706e-05 0.0149233688408268 3.4259566061e-05) 40
(0.000315257596981983 0.0148012753275822 1.10881297030075e-05) 40
(0.000727930478386869 0.0149054195330252 2.55916975724927e-05) 40
(5.21943048340473e-06 0.0140579492111368 3.06602073981386e-05) 40
(6.65252075825564e-05 0.0144434411260855 1.69725776100378e-05) 40
(0.000164392991273112 0.0142696381778123 5.65690137544771e-06) 40
(0.000649180813875582 0.0144467118992255 1.64537587929687e-05) 40
(0.000834007038056656 0.0147986069102956 4.98233205706424e-05) 40
(0.000214757576399049 0.0140885940128543 2.56644696197631e-05) 40
(0.000670493861315242 0.01409580060416 2.0070430206667e-05) 40
(0.00133930618301371 0.0147841141786679 2.92751246901161e-05) 41
(0.00125626785316864 0.0148424232634389 2.77430719754224e-05) 41
(0.00189898044003007 0.01422346778914 4.38929448654035e-08) 41
(0.0018043242795175 0.0141006104432605 4.58634251326011e-05) 41
(0.00165875567328585 0.0140045391764423 3.2909520377774e-05) 41
(0.00105263643416283 0.014537704949523 8.10023186584652e-06) 41
(0.00114348600636448 0.0146633172918852 3.42090192430102e-05) 41
(0.00276001752146448 0.0147154462555928 1.93796818886748e-05) 42
(0.00298592212353695 0.0144643175987138 4.11988375170554e-05) 42
(0.00288749909992993 0.0149191164504407 3.34210026627155e-05) 42
(0.00255157091536118 0.0148154648734524 7.46604488059492e-06) 42
(0.00254915173472655 0.0144210676827128 5.01757596043845e-06) 42
(0.0024626683903609 0.0141600756276402 4.78572132801351e-06) 42
(0.00247789934932614 0.0143664859438627 4.24297666621541e-05) 42
(0.00230841392294833 0.0147255822885915 4.86491812377803e-05) 42
(0.00239247254267625 0.0141072587624826 3.61151206101459e-05) 42
(0.00244443661473849 0.0143849038417709 2.11563959751015e-05) 42
(0.00211563084034171 0.0143614092717718 2.94598598688945e-05) 42
(0.00397414875555732 0.0143644385288521 2.02319860823935e-05) 43
(0.00359744498860945 0.0149429046565079 4.53334076553126e-05) 43
(0.00326266437625702 0.0148602208888833 4.72098981675771e-06) 43
(0.00325481903038373 0.0146673883968711 9.26763589228158e-06) 43
(0.00352942298173355 0.0144579672457639 2.01406085089291e-05) 43
(0.00333104426936567 0.0144957218879253 4.38497100573837e-05) 43
(0.00389787354190925 0.0140075270002532 4.15471061879307e-05) 43
(0.00310814821709671 0.0141755508909017 1.22791184331964e-05) 43
(0.00488996937603211 0.0143097021783586 3.2569150348735e-05) 44
(0.00448828114625566 0.014772614168619 1.92467351387477e-05) 44
(0.00433298176728614 0.0145204934585444 1.17560477821961e-05) 44
(0.00462557146334574 0.0143056890789608 4.50419470499545e-05) 44
(0.00430935352818246 0.0144993094898405 3.86684245450607e-05) 44
(0.00460872610764276 0.0141945197429202 3.27621108076721e-05) 44
(0.00447147958350703 0.0142798007039789 1.58943054031e-05) 44
(0.00405912034508457 0.0147563438762596 3.52871859398793e-05) 44
(0.00431451650041012 0.0143377324015109 2.36442329369381e-05) 44
(0.00585579730522684 0.0145991167094121 1.73364863142022e-05) 45
(0.00593784700435433 0.0142833395253531 4.13445523410696e-05) 45
(0.00576969858402396 0.0148872363959356 4.30480428292205e-05) 45
(0.00543959777488057 0.0149990157395165 8.84012290218581e-07) 45
(0.00546640909899726 0.0148362975109948 4.68048976892929e-06) 45
(0.0055876752533636 0.0144671324147188 4.68605145862572e-07) 45
(0.00521515458066701 0.0142093203329987 4.71374790206521e-05) 45
(0.00541711515016436 0.0147435962069794 4.34884903592011e-05) 45
(0.00561213242122693 0.0140818692596637 4.10256123742662e-05) 45