/*--------------------------------*- C++ -*----------------------------------*\
| =========                 |                                                 |
| \\      /  F ield         | OpenFOAM: The Open Source CFD Toolbox           |
|  \\    /   O peration     | Version:  v1912                                 |
|   \\  /    A nd           | Website:  www.openfoam.com                      |
|    \\/     M anipulation  |                                                 |
\*---------------------------------------------------------------------------*/
FoamFile
{
    version     2.0;
    format      ascii;
    class       dictionary;
    object      blockMeshDict;
}
// * * * * * * * * * * * * * * * * * * * * * * * * * * * * * * * * * * * * * //

scale   1;

vertices #codeStream
{
    codeInclude
    #{
        #include "pointField.H"
    #};

    code
    #{
        pointField points(19);
        points[0]  = point(45, 0, -0.5);
        points[1] = point(50, 0, -0.5);
        points[2] = point(50, 3.74, -0.5);
        points[3] = point(45, 3.74, -0.5);
        points[4] = point(45, 15, -0.5);
        points[5] = point(50, 15, -0.5);
        points[6] = point(50, 20, -0.5);
        points[7] = point(45, 20, -0.5);
        points[8] = point(40, 20, -0.5);
        points[9] = point(40, 15, -0.5);
        points[10] = point(40, 3.74, -0.5); // end of nozzle
        points[11] = point(28.8, 2.58326, -0.5);
        points[12] = point(25, 12.99, -0.5); // midpoint
        points[13] = point(25, 20, -0.5);
        points[14] = point(0, 20, -0.5);
        points[15] = point(0, 12.99, -0.5);
        points[16] = point(0, 0, -0.5);
        points[17] = point(10, 0, -0.5);
        points[18] = point(18, 0, -0.5); // begining of nozzle

        // Duplicate z points
        label sz = points.size();
        points.setSize(2*sz);
        for (label i = 0; i < sz; i++)
        {
            const point& pt = points[i];
            points[i+sz] = point(pt.x(), pt.y(), -pt.z());
        }

        os  << points;
    #};
};


blocks
(
    hex (0 1 2 3 19 20 21 22) (10 10 1) simpleGrading (1 1 1) // 0
    hex (3 2 5 4 22 21 24 23) (10 10 1) simpleGrading (1 1 1) // 1
    hex (4 5 6 7 23 24 25 26) (10 10 1) simpleGrading (1 1 1) // 2
    hex (9 4 7 8 28 23 26 27) (10 10 1) simpleGrading (1 1 1) // 3
    hex (10 3 4 9 29 22 23 28) (10 10 1) simpleGrading (1 1 1) // 4
    hex (11 10 9 12 30 29 28 31) (10 10 1) simpleGrading (1 1 1) // 5
    hex (17 18 11 12 36 37 30 31) (10 10 1) simpleGrading (1 1 1) // 6
    hex (16 17 12 15 35 36 31 34) (10 10 1) simpleGrading (1 1 1) // 7
    hex (15 12 13 14 34 31 32 33) (10 10 1) simpleGrading (1 1 1) // 8
    hex (12 9 8 13 31 28 27 32) (10 10 1) simpleGrading (1 1 1) // 9
);

edges
(
    // nose cone lower half
    polyLine 18 11
    (
        (18 0.00000 -0.5)
        (18.1125 0.09180 -0.5)
        (18.225 0.15428 -0.5)
        (18.3375 0.20895 -0.5)
        (18.45 0.25907 -0.5)
        (18.675 0.35061 -0.5)
        (18.9 0.43437 -0.5)
        (19.125 0.51271 -0.5)
        (19.35 0.58692 -0.5)
        (19.575 0.65783 -0.5)
        (19.8 0.72597 -0.5)
        (20.025 0.79176 -0.5)
        (20.25 0.85549 -0.5)
        (20.7 0.97768 -0.5)
        (21.15 1.09391 -0.5)
        (21.6 1.20512 -0.5)
        (22.05 1.31198 -0.5)
        (22.5 1.41499 -0.5)
        (22.95 1.51455 -0.5)
        (23.4 1.61097 -0.5)
        (23.85 1.70450 -0.5)
        (24.3 1.79534 -0.5)
        (24.75 1.88366 -0.5)
        (25.2 1.96962 -0.5)
        (25.65 2.05332 -0.5)
        (26.1 2.13488 -0.5)
        (26.55 2.21438 -0.5)
        (27 2.29189 -0.5)
        (27.45 2.36749 -0.5)
        (27.9 2.44122 -0.5)
        (28.35 2.51313 -0.5)
        (28.8 2.58326 -0.5)
    )

    polyLine 37 30
    (
        (18 0.00000 0.5)
        (18.1125 0.09180 0.5)
        (18.225 0.15428 0.5)
        (18.3375 0.20895 0.5)
        (18.45 0.25907 0.5)
        (18.675 0.35061 0.5)
        (18.9 0.43437 0.5)
        (19.125 0.51271 0.5)
        (19.35 0.58692 0.5)
        (19.575 0.65783 0.5)
        (19.8 0.72597 0.5)
        (20.025 0.79176 0.5)
        (20.25 0.85549 0.5)
        (20.7 0.97768 0.5)
        (21.15 1.09391 0.5)
        (21.6 1.20512 0.5)
        (22.05 1.31198 0.5)
        (22.5 1.41499 0.5)
        (22.95 1.51455 0.5)
        (23.4 1.61097 0.5)
        (23.85 1.70450 0.5)
        (24.3 1.79534 0.5)
        (24.75 1.88366 0.5)
        (25.2 1.96962 0.5)
        (25.65 2.05332 0.5)
        (26.1 2.13488 0.5)
        (26.55 2.21438 0.5)
        (27 2.29189 0.5)
        (27.45 2.36749 0.5)
        (27.9 2.44122 0.5)
        (28.35 2.51313 0.5)
        (28.8 2.58326 0.5)
    )

    // nose cone upper half
    polyLine 11 10
    (
        (28.8 2.58326 -0.5)
        (29.25 2.65165 -0.5)
        (29.7 2.71832 -0.5)
        (30.15 2.78329 -0.5)
        (30.6 2.84657 -0.5)
        (31.05 2.90818 -0.5)
        (31.5 2.96812 -0.5)
        (31.95 3.02639 -0.5)
        (32.4 3.08298 -0.5)
        (32.85 3.13789 -0.5)
        (33.3 3.19110 -0.5)
        (33.75 3.24258 -0.5)
        (34.2 3.29230 -0.5)
        (34.65 3.34024 -0.5)
        (35.1 3.38634 -0.5)
        (35.55 3.43054 -0.5)
        (36 3.47279 -0.5)
        (36.45 3.51301 -0.5)
        (36.9 3.55108 -0.5)
        (37.35 3.58690 -0.5)
        (37.8 3.62031 -0.5)
        (38.25 3.65111 -0.5)
        (38.7 3.67906 -0.5)
        (39.15 3.70378 -0.5)
        (39.6 3.72476 -0.5)
        (40.05 3.74104 -0.5)
    )

    polyLine 30 29
    (
        (28.8 2.58326 0.5)
        (29.25 2.65165 0.5)
        (29.7 2.71832 0.5)
        (30.15 2.78329 0.5)
        (30.6 2.84657 0.5)
        (31.05 2.90818 0.5)
        (31.5 2.96812 0.5)
        (31.95 3.02639 0.5)
        (32.4 3.08298 0.5)
        (32.85 3.13789 0.5)
        (33.3 3.19110 0.5)
        (33.75 3.24258 0.5)
        (34.2 3.29230 0.5)
        (34.65 3.34024 0.5)
        (35.1 3.38634 0.5)
        (35.55 3.43054 0.5)
        (36 3.47279 0.5)
        (36.45 3.51301 0.5)
        (36.9 3.55108 0.5)
        (37.35 3.58690 0.5)
        (37.8 3.62031 0.5)
        (38.25 3.65111 0.5)
        (38.7 3.67906 0.5)
        (39.15 3.70378 0.5)
        (39.6 3.72476 0.5)
    )

    // boundary layer
    polyLine 17 12
    (
        (10	0	-0.5)
        (10.25 1.932453104 -0.5)
        (10.5 2.727178029 -0.5)
        (10.75 3.333072906 -0.5)
        (11 3.840572874 -0.5)
        (11.25 4.284784125 -0.5)
        (11.5 4.683748499 -0.5)
        (11.75 5.048205127 -0.5)
        (12	5.385164807	-0.5)
        (12.25 5.699506558 -0.5)
        (12.5 5.994789404 -0.5)
        (12.75 6.273705046 -0.5)
        (13	6.538348415 -0.5)
        (13.25 6.790388428 -0.5)
        (13.5 7.031180555 -0.5)
        (13.75 7.261843774 -0.5)
        (14	7.483314774	-0.5)
        (14.25 7.696387139 -0.5)
        (14.5 7.901740315 -0.5)
        (14.75 8.09996142 -0.5)
        (15	8.291561976	-0.5)
        (15.25 8.476990917 -0.5)
        (15.5 8.656644847 -0.5)
        (15.75 8.830876231 -0.5)
        (16	9 -0.5)
        (16.25 9.164298937 -0.5)
        (16.5 9.324028099 -0.5)
        (16.75 9.479418495 -0.5)
        (17	9.630680142	-0.5)
        (17.25 9.778004653 -0.5)
        (17.5 9.921567416 -0.5)
        (17.75 10.06152946 -0.5)
        (18	10.19803903	-0.5)
        (18.25 10.33123299 -0.5)
        (18.5 10.46123798 -0.5)
        (18.75 10.58817147 -0.5)
        (19	10.71214264	-0.5)
        (19.25 10.8332532 -0.5)
        (19.5 10.95159806 -0.5)
        (19.75 11.06726592 -0.5)
        (20	11.18033989	-0.5)
        (20.25 11.29089788 -0.5)
        (20.5 11.39901312 -0.5)
        (20.75 11.50475445 -0.5)
        (21	11.60818677	-0.5)
        (21.25 11.70937125 -0.5)
        (21.5 11.80836568 -0.5)
        (21.75 11.90522469 -0.5)
        (22	12 -0.5)
        (22.25 12.09274059	-0.5)
        (22.5 12.18349293 -0.5)
        (22.75 12.27230113 -0.5)
        (23	12.35920709	-0.5)
        (23.25 12.44425068 -0.5)
        (23.5 12.52746982 -0.5)
        (23.75 12.60890063 -0.5)
        (24	12.68857754	-0.5)
        (24.25 12.7665334 -0.5)
        (24.5 12.84279954 -0.5)
        (24.75 12.91740589 -0.5)
        (25	12.99038106	-0.5)
    )

    polyLine 36 31
    (
        (10	0	0.5)
        (10.25 1.932453104 0.5)
        (10.5 2.727178029 0.5)
        (10.75 3.333072906 0.5)
        (11 3.840572874 0.5)
        (11.25 4.284784125 0.5)
        (11.5 4.683748499 0.5)
        (11.75 5.048205127 0.5)
        (12	5.385164807	0.5)
        (12.25 5.699506558 0.5)
        (12.5 5.994789404 0.5)
        (12.75 6.273705046 0.5)
        (13	6.538348415 0.5)
        (13.25 6.790388428 0.5)
        (13.5 7.031180555 0.5)
        (13.75 7.261843774 0.5)
        (14	7.483314774	0.5)
        (14.25 7.696387139 0.5)
        (14.5 7.901740315 0.5)
        (14.75 8.09996142 0.5)
        (15	8.291561976	0.5)
        (15.25 8.476990917 0.5)
        (15.5 8.656644847 0.5)
        (15.75 8.830876231 0.5)
        (16	9 0.5)
        (16.25 9.164298937 0.5)
        (16.5 9.324028099 0.5)
        (16.75 9.479418495 0.5)
        (17	9.630680142	0.5)
        (17.25 9.778004653 0.5)
        (17.5 9.921567416 0.5)
        (17.75 10.06152946 0.5)
        (18	10.19803903	0.5)
        (18.25 10.33123299 0.5)
        (18.5 10.46123798 0.5)
        (18.75 10.58817147 0.5)
        (19	10.71214264	0.5)
        (19.25 10.8332532 0.5)
        (19.5 10.95159806 0.5)
        (19.75 11.06726592 0.5)
        (20	11.18033989	0.5)
        (20.25 11.29089788 0.5)
        (20.5 11.39901312 0.5)
        (20.75 11.50475445 0.5)
        (21	11.60818677	0.5)
        (21.25 11.70937125 0.5)
        (21.5 11.80836568 0.5)
        (21.75 11.90522469 0.5)
        (22	12 0.5)
        (22.25 12.09274059	0.5)
        (22.5 12.18349293 0.5)
        (22.75 12.27230113 0.5)
        (23	12.35920709	0.5)
        (23.25 12.44425068 0.5)
        (23.5 12.52746982 0.5)
        (23.75 12.60890063 0.5)
        (24	12.68857754	0.5)
        (24.25 12.7665334 0.5)
        (24.5 12.84279954 0.5)
        (24.75 12.91740589 0.5)
        (25	12.99038106	0.5)
    )

    // boundary layer upper half
    polyLine 12 9
    (
        (25	12.99038106	-0.5)
        (25.25 13.06175237 -0.5)
        (25.5 13.13154599 -0.5)
        (25.75 13.19978693 -0.5)
        (26	13.26649916	-0.5)
        (26.25 13.33170563 -0.5)
        (26.5 13.39542832 -0.5)
        (26.75 13.45768832 -0.5)
        (27	13.51850583	-0.5)
        (27.25 13.57790024	-0.5)
        (27.5 13.63589014 -0.5)
        (27.75 13.69249338 -0.5)
        (28	13.74772708	-0.5)
        (28.25 13.8016077 -0.5)
        (28.5 13.854151	-0.5)
        (28.75 13.90537216 -0.5)
        (29	13.95528574	-0.5)
        (29.25 14.00390571	-0.5)
        (29.5 14.0512455	-0.5)
        (29.75 14.09731801	-0.5)
        (30	14.14213562	-0.5)
        (30.25 14.18571024	-0.5)
        (30.5 14.22805328	-0.5)
        (30.75 14.26917569	-0.5)
        (31	14.30908802	-0.5)
        (31.25 14.34780035	-0.5)
        (31.5 14.38532238	-0.5)
        (31.75 14.42166339	-0.5)
        (32	14.45683229	-0.5)
        (32.25 14.49083762	-0.5)
        (32.5 14.52368755	-0.5)
        (32.75 14.5553899	-0.5)
        (33	14.58595215	-0.5)
        (33.25 14.61538145	-0.5)
        (33.5 14.64368465	-0.5)
        (33.75 14.67086824	-0.5)
        (34	14.69693846	-0.5)
        (34.25 14.7219012	-0.5)
        (34.5 14.7457621	-0.5)
        (34.75 14.7685265	-0.5)
        (35	14.79019946	-0.5)
        (35.25 14.81078577	-0.5)
        (35.5 14.83028995	-0.5)
        (35.75 14.84871627	-0.5)
        (36	14.86606875	-0.5)
        (36.25 14.88235112	-0.5)
        (36.5 14.89756692	-0.5)
        (36.75 14.91171938	-0.5)
        (37	14.92481156	-0.5)
        (37.25 14.93684622	-0.5)
        (37.5 14.94782593	-0.5)
        (37.75 14.95775301	-0.5)
        (38	14.96662955	-0.5)
        (38.25 14.97445742	-0.5)
        (38.5 14.98123827	-0.5)
        (38.75 14.98697351	-0.5)
        (39 14.99166435	-0.5)
        (39.25 14.99531177	-0.5)
        (39.5 14.99791652	-0.5)
        (39.75 14.99947916	-0.5)
        (40	15 -0.5)
    )

    polyLine 31 28
    (
        (25	12.99038106	0.5)
    (25.25 13.06175237 0.5)
    (25.5 13.13154599 0.5)
    (25.75 13.19978693 0.5)
    (26	13.26649916	0.5)
    (26.25 13.33170563 0.5)
    (26.5 13.39542832 0.5)
    (26.75 13.45768832 0.5)
    (27	13.51850583	0.5)
    (27.25 13.57790024	0.5)
    (27.5 13.63589014 0.5)
    (27.75 13.69249338 0.5)
    (28	13.74772708	0.5)
    (28.25 13.8016077 0.5)
    (28.5 13.854151	0.5)
    (28.75 13.90537216 0.5)
    (29	13.95528574	0.5)
    (29.25 14.00390571	0.5)
    (29.5 14.0512455	0.5)
    (29.75 14.09731801	0.5)
    (30	14.14213562	0.5)
    (30.25 14.18571024	0.5)
    (30.5 14.22805328	0.5)
    (30.75 14.26917569	0.5)
    (31	14.30908802	0.5)
    (31.25 14.34780035	0.5)
    (31.5 14.38532238	0.5)
    (31.75 14.42166339	0.5)
    (32	14.45683229	0.5)
    (32.25 14.49083762	0.5)
    (32.5 14.52368755	0.5)
    (32.75 14.5553899	0.5)
    (33	14.58595215	0.5)
    (33.25 14.61538145	0.5)
    (33.5 14.64368465	0.5)
    (33.75 14.67086824	0.5)
    (34	14.69693846	0.5)
    (34.25 14.7219012	0.5)
    (34.5 14.7457621	0.5)
    (34.75 14.7685265	0.5)
    (35	14.79019946	0.5)
    (35.25 14.81078577	0.5)
    (35.5 14.83028995	0.5)
    (35.75 14.84871627	0.5)
    (36	14.86606875	0.5)
    (36.25 14.88235112	0.5)
    (36.5 14.89756692	0.5)
    (36.75 14.91171938	0.5)
    (37	14.92481156	0.5)
    (37.25 14.93684622	0.5)
    (37.5 14.94782593	0.5)
    (37.75 14.95775301	0.5)
    (38	14.96662955	0.5)
    (38.25 14.97445742	0.5)
    (38.5 14.98123827	0.5)
    (38.75 14.98697351	0.5)
    (39 14.99166435	0.5)
    (39.25 14.99531177	0.5)
    (39.5 14.99791652	0.5)
    (39.75 14.99947916	0.5)
    (40	15 0.5)
    )

);

boundary
(
    inlet 
    {
        type patch;
        faces
        (
            (35 34 15 16)
            (15 34 33 14)
        );
    }

    outlet
    {
        type patch;
        faces
        (
            (1 2 21 20)
            (2 5 24 21)
            (6 5 24 25)
        );
    }

    top
    {
        type symmetryPlane;
        faces
        (
            (14 13 32 33)
            (13 8 27 32)
            (8 7 27 26)
            (7 6 26 25)
        );
    }

    bottom
    {
        type symmetry;
        faces
        (
            (16 35 36 17)
            (17 36 37 18)
            (0 1 20 19)
        );
    }

    // front and back
    empty
    {
        type empty;
        faces
        (
            (22 21 20 19)
            (23 24 22 21)
            (26 25 24 23)
            (27 26 23 28)
            (28 23 22 29)
            (31 28 29 30)
            (36 31 30 37)
            (35 34 31 36)
            (33 34 32 31)
            (32 27 28 31)
            (0 1 2 3)
            (2 3 4 5)
            (4 5 6 7)
            (8 7 9 4)
            (10 9 4 3)
            (12 9 10 11)
            (17 12 11 18)
            (15 12 17 16)
            (14 13 12 15)
            (13 8 9 12)
        );
    }

    wall
    {
        type patch;
        faces
        (
            (18 11 30 37)
            (11 10 29 30)
            (10 3 22 29)
            (0 3 22 19)
        );
    }
);

mergePatchPairs
(
);

// ************************************************************************* //