/*--------------------------------*- C++ -*----------------------------------*\
| =========                 |                                                 |
| \\      /  F ield         | OpenFOAM: The Open Source CFD Toolbox           |
|  \\    /   O peration     | Version:  v1912                                 |
|   \\  /    A nd           | Website:  www.openfoam.com                      |
|    \\/     M anipulation  |                                                 |
\*---------------------------------------------------------------------------*/
FoamFile
{
    version     2.0;
    format      ascii;
    class       polyBoundaryMesh;
    location    "constant/polyMesh";
    object      boundary;
}
// * * * * * * * * * * * * * * * * * * * * * * * * * * * * * * * * * * * * * //

4
(
    inlet
    {
        type            patch;
        nFaces          20;
        startFace       2520;
    }
    outlet
    {
        type            patch;
        nFaces          70;
        startFace       2540;
    }
    wall
    {
        type            patch;
        nFaces          70;
        startFace       2610;
    }
    frontAndBack
    {
        type            empty;
        inGroups        1(empty);
        nFaces          2600;
        startFace       2680;
    }
)

// ************************************************************************* //
