/*--------------------------------*- C++ -*----------------------------------*\
| =========                 |                                                 |
| \\      /  F ield         | OpenFOAM: The Open Source CFD Toolbox           |
|  \\    /   O peration     | Version:  v1912                                 |
|   \\  /    A nd           | Website:  www.openfoam.com                      |
|    \\/     M anipulation  |                                                 |
\*---------------------------------------------------------------------------*/
FoamFile
{
    version     2.0;
    format      ascii;
    class       polyBoundaryMesh;
    location    "constant/polyMesh";
    object      boundary;
}
// * * * * * * * * * * * * * * * * * * * * * * * * * * * * * * * * * * * * * //

6
(
    inlet
    {
        type            patch;
        nFaces          20;
        startFace       1920;
    }
    outlet
    {
        type            patch;
        nFaces          30;
        startFace       1940;
    }
    top
    {
        type            symmetryPlane;
        inGroups        1(symmetryPlane);
        nFaces          40;
        startFace       1970;
    }
    bottom
    {
        type            symmetryPlane;
        inGroups        1(symmetryPlane);
        nFaces          30;
        startFace       2010;
    }
    empty
    {
        type            empty;
        inGroups        1(empty);
        nFaces          2000;
        startFace       2040;
    }
    wall
    {
        type            patch;
        nFaces          40;
        startFace       4040;
    }
)

// ************************************************************************* //
