/*--------------------------------*- C++ -*----------------------------------*\
| =========                 |                                                 |
| \\      /  F ield         | OpenFOAM: The Open Source CFD Toolbox           |
|  \\    /   O peration     | Version:  v1912                                 |
|   \\  /    A nd           | Website:  www.openfoam.com                      |
|    \\/     M anipulation  |                                                 |
\*---------------------------------------------------------------------------*/
FoamFile
{
    version     2.0;
    format      ascii;
    class       dictionary;
    object      blockMeshDict;
}
// * * * * * * * * * * * * * * * * * * * * * * * * * * * * * * * * * * * * * //

scale   1.000000;

// From diagram.
x_0 0.000000;
x_1 6.000000;
x_2 9.000000;
x_3 49.000000;

x_4 49.400000;

x_5 120.000000;

y_0 0.000000;
y_1 27.000000;
y_2 27.750000;
y_3 27.750000;
y_4 30.000000;

y_5 32.250000;

y_6 32.250000;

y_7 33.000000;

y_8 60.000000;

zmin 0;
zmax 0.05;

vertices
(
    // block 0
    ($x_0 $y_4 $zmin) // 0
    ($x_1 $y_4 $zmin) // 1
    ($x_1 $y_8 $zmin) // 2
    ($x_0 $y_8 $zmin) // 3

    ($x_0 $y_4 $zmax) // 4
    ($x_1 $y_4 $zmax) // 5
    ($x_1 $y_8 $zmax) // 6
    ($x_0 $y_8 $zmax) // 7

    // block 1 (extra needed)
    ($x_2 $y_7 $zmin) // 8
    ($x_2 $y_8 $zmin) // 9
    ($x_2 $y_7 $zmax) // 10
    ($x_2 $y_8 $zmax) // 11

    // block 2 (extra needed)
    ($x_3 $y_7 $zmin) // 12
    ($x_3 $y_8 $zmin) // 13
    ($x_3 $y_7 $zmax) // 14
    ($x_3 $y_8 $zmax) // 15

    // block 3 (extra needed)
    ($x_4 $y_7 $zmin) // 16
    ($x_4 $y_8 $zmin) // 17
    ($x_4 $y_7 $zmax) // 18
    ($x_4 $y_8 $zmax) // 19
    // block 4 (extra needed)
    ($x_5 $y_7 $zmin) // 20
    ($x_5 $y_8 $zmin) // 21
    ($x_5 $y_7 $zmax) // 22
    ($x_5 $y_8 $zmax) // 23

    // block 5 (extra needed)
    ($x_4 $y_6 $zmin) // 24
    ($x_3 $y_5 $zmin) // 25
    ($x_4 $y_6 $zmax) // 26
    ($x_3 $y_5 $zmax) // 27

    // block 6 (extra needed)
    ($x_5 $y_6 $zmin) // 28
    ($x_5 $y_6 $zmax) // 29

    // block 7 (extra needed)
    ($x_5 $y_2 $zmin) // 30
    ($x_4 $y_2 $zmin) // 31
    ($x_5 $y_2 $zmax) // 32
    ($x_4 $y_2 $zmax) // 33
    // block 8 (extra needed)
    ($x_5 $y_1 $zmin) // 34
    ($x_4 $y_1 $zmin) // 35
    ($x_5 $y_1 $zmax) // 36
    ($x_4 $y_1 $zmax) // 37
    // block 9 (extra needed)
    ($x_3 $y_3 $zmin) // 38
    ($x_3 $y_1 $zmin) // 39
    ($x_3 $y_3 $zmax) // 40
    ($x_3 $y_1 $zmax) // 41
    // block 10 (extra needed)
    ($x_5 $y_0 $zmin) // 42
    ($x_4 $y_0 $zmin) // 43
    ($x_5 $y_0 $zmax) // 44
    ($x_4 $y_0 $zmax) // 45
    // block 11 (extra needed)
    ($x_3 $y_0 $zmin) // 46
    ($x_3 $y_0 $zmax) // 47
    // block 12 (extra needed)
    ($x_2 $y_1 $zmin) // 48
    ($x_2 $y_0 $zmin) // 49
    ($x_2 $y_1 $zmax) // 50
    ($x_2 $y_0 $zmax) // 51
    // block 13 (extra needed)
    ($x_1 $y_0 $zmin) // 52
    ($x_1 $y_0 $zmax) // 53
    // block 14 (extra needed)
    ($x_0 $y_0 $zmin) // 52
    ($x_0 $y_0 $zmax) // 53
);

blocks
(
    hex (0 1 2 3 4 5 6 7) (10 10 1) simpleGrading (1 1 1) // 0
    hex (1 8 9 2 5 10 11 6) (10 10 1) simpleGrading (1 1 1) // 1
    hex (8 12 13 9 10 14 15 11) (10 10 1) simpleGrading (1 1 1) // 2
    hex (12 16 17 13 14 18 19 15) (10 10 1) simpleGrading (1 1 1) // 3
    hex (16 20 21 17 18 22 23 19) (10 10 1) (1 1 1) // 4
    hex (25 24 16 12 27 26 18 14) (10 10 1) simpleGrading (1 1 1) // 5
    hex (24 28 20 16 26 29 22 18) (10 10 1) simpleGrading (1 1 1) // 6
    hex (31 30 28 24 33 32 29 26) (10 10 1) simpleGrading (1 1 1) // 7
    hex (35 34 30 31 37 36 32 33) (10 10 1) simpleGrading (1 1 1) // 8
    hex (39 35 31 38 41 37 33 40) (10 10 1) simpleGrading (1 1 1) // 9
    hex (43 42 34 35 45 44 36 37) (10 10 1) simpleGrading (1 1 1) // 10
    hex (46 43 35 39 47 45 37 41) (10 10 1) simpleGrading (1 1 1) // 11
    hex (49 46 39 48 51 47 41 50) (10 10 1) simpleGrading (1 1 1) // 12
    hex (52 49 48 1 53 51 50 5) (10 10 1) simpleGrading (1 1 1) // 13
    hex (54 52 1 0 55 53 5 4) (10 10 1) simpleGrading (1 1 1) // 14
);
edges
(
    // Upper edge of Nose Cone
    BSpline 1 8
    (
        (6.000500 30.005734 0)
        (6.001000 30.009642 0)
        (6.001500 30.013069 0)
        (6.002000 30.016216 0)
        (6.002500 30.019169 0)
        (6.003000 30.021978 0)
        (6.003500 30.024671 0)
        (6.004000 30.027269 0)
        (6.004500 30.029786 0)
        (6.005000 30.032235 0)
        (6.005500 30.034622 0)
        (6.006000 30.036956 0)
        (6.006500 30.039242 0)
        (6.007000 30.041484 0)
        (6.007500 30.043686 0)
        (6.008000 30.045851 0)
        (6.008500 30.047983 0)
        (6.009000 30.050083 0)
        (6.009500 30.052154 0)
        (6.010000 30.054199 0)
        (6.010500 30.056217 0)
        (6.011000 30.058212 0)
        (6.011500 30.060184 0)
        (6.012000 30.062134 0)
        (6.012500 30.064064 0)
        (6.013000 30.065975 0)
        (6.013500 30.067867 0)
        (6.014000 30.069742 0)
        (6.014500 30.071600 0)
        (6.015000 30.073442 0)
        (6.015500 30.075269 0)
        (6.016000 30.077081 0)
        (6.016500 30.078879 0)
        (6.017000 30.080662 0)
        (6.017500 30.082433 0)
        (6.018000 30.084191 0)
        (6.018500 30.085937 0)
        (6.019000 30.087671 0)
        (6.019500 30.089394 0)
        (6.020000 30.091105 0)
        (6.020500 30.092806 0)
        (6.021000 30.094496 0)
        (6.021500 30.096176 0)
        (6.022000 30.097846 0)
        (6.022500 30.099507 0)
        (6.023000 30.101158 0)
        (6.023500 30.102800 0)
        (6.024000 30.104434 0)
        (6.024500 30.106059 0)
        (6.025000 30.107675 0)
        (6.025500 30.109284 0)
        (6.026000 30.110884 0)
        (6.026500 30.112477 0)
        (6.027000 30.114062 0)
        (6.027500 30.115639 0)
        (6.028000 30.117210 0)
        (6.028500 30.118773 0)
        (6.029000 30.120329 0)
        (6.029500 30.121879 0)
        (6.030000 30.123422 0)
        (6.030500 30.124958 0)
        (6.031000 30.126488 0)
        (6.031500 30.128012 0)
        (6.032000 30.129530 0)
        (6.032500 30.131042 0)
        (6.033000 30.132547 0)
        (6.033500 30.134047 0)
        (6.034000 30.135542 0)
        (6.034500 30.137030 0)
        (6.035000 30.138514 0)
        (6.035500 30.139992 0)
        (6.036000 30.141464 0)
        (6.036500 30.142932 0)
        (6.037000 30.144394 0)
        (6.037500 30.145851 0)
        (6.038000 30.147304 0)
        (6.038500 30.148751 0)
        (6.039000 30.150194 0)
        (6.039500 30.151632 0)
        (6.040000 30.153066 0)
        (6.040500 30.154494 0)
        (6.041000 30.155919 0)
        (6.041500 30.157339 0)
        (6.042000 30.158754 0)
        (6.042500 30.160166 0)
        (6.043000 30.161573 0)
        (6.043500 30.162976 0)
        (6.044000 30.164374 0)
        (6.044500 30.165769 0)
        (6.045000 30.167160 0)
        (6.045500 30.168547 0)
        (6.046000 30.169930 0)
        (6.046500 30.171309 0)
        (6.047000 30.172684 0)
        (6.047500 30.174056 0)
        (6.048000 30.175424 0)
        (6.048500 30.176788 0)
        (6.049000 30.178148 0)
        (6.049500 30.179506 0)
        (6.050000 30.180859 0)
        (6.050500 30.182209 0)
        (6.051000 30.183556 0)
        (6.051500 30.184899 0)
        (6.052000 30.186239 0)
        (6.052500 30.187576 0)
        (6.053000 30.188910 0)
        (6.053500 30.190240 0)
        (6.054000 30.191567 0)
        (6.054500 30.192891 0)
        (6.055000 30.194212 0)
        (6.055500 30.195529 0)
        (6.056000 30.196844 0)
        (6.056500 30.198156 0)
        (6.057000 30.199464 0)
        (6.057500 30.200770 0)
        (6.058000 30.202073 0)
        (6.058500 30.203373 0)
        (6.059000 30.204670 0)
        (6.059500 30.205964 0)
        (6.060000 30.207256 0)
        (6.060500 30.208545 0)
        (6.061000 30.209830 0)
        (6.061500 30.211114 0)
        (6.062000 30.212394 0)
        (6.062500 30.213672 0)
        (6.063000 30.214948 0)
        (6.063500 30.216220 0)
        (6.064000 30.217490 0)
        (6.064500 30.218758 0)
        (6.065000 30.220023 0)
        (6.065500 30.221286 0)
        (6.066000 30.222546 0)
        (6.066500 30.223803 0)
        (6.067000 30.225058 0)
        (6.067500 30.226311 0)
        (6.068000 30.227561 0)
        (6.068500 30.228809 0)
        (6.069000 30.230055 0)
        (6.069500 30.231298 0)
        (6.070000 30.232539 0)
        (6.070500 30.233778 0)
        (6.071000 30.235014 0)
        (6.071500 30.236249 0)
        (6.072000 30.237481 0)
        (6.072500 30.238710 0)
        (6.073000 30.239938 0)
        (6.073500 30.241163 0)
        (6.074000 30.242387 0)
        (6.074500 30.243608 0)
        (6.075000 30.244827 0)
        (6.075500 30.246043 0)
        (6.076000 30.247258 0)
        (6.076500 30.248471 0)
        (6.077000 30.249682 0)
        (6.077500 30.250890 0)
        (6.078000 30.252097 0)
        (6.078500 30.253301 0)
        (6.079000 30.254504 0)
        (6.079500 30.255705 0)
        (6.080000 30.256903 0)
        (6.080500 30.258100 0)
        (6.081000 30.259295 0)
        (6.081500 30.260488 0)
        (6.082000 30.261679 0)
        (6.082500 30.262868 0)
        (6.083000 30.264055 0)
        (6.083500 30.265240 0)
        (6.084000 30.266424 0)
        (6.084500 30.267606 0)
        (6.085000 30.268785 0)
        (6.085500 30.269964 0)
        (6.086000 30.271140 0)
        (6.086500 30.272314 0)
        (6.087000 30.273487 0)
        (6.087500 30.274658 0)
        (6.088000 30.275827 0)
        (6.088500 30.276995 0)
        (6.089000 30.278161 0)
        (6.089500 30.279325 0)
        (6.090000 30.280487 0)
        (6.090500 30.281648 0)
        (6.091000 30.282807 0)
        (6.091500 30.283964 0)
        (6.092000 30.285120 0)
        (6.092500 30.286274 0)
        (6.093000 30.287426 0)
        (6.093500 30.288577 0)
        (6.094000 30.289726 0)
        (6.094500 30.290874 0)
        (6.095000 30.292020 0)
        (6.095500 30.293165 0)
        (6.096000 30.294307 0)
        (6.096500 30.295449 0)
        (6.097000 30.296589 0)
        (6.097500 30.297727 0)
        (6.098000 30.298864 0)
        (6.098500 30.299999 0)
        (6.099000 30.301133 0)
        (6.099500 30.302265 0)
        (6.100000 30.303395 0)
        (6.100500 30.304525 0)
        (6.101000 30.305652 0)
        (6.101500 30.306779 0)
        (6.102000 30.307904 0)
        (6.102500 30.309027 0)
        (6.103000 30.310149 0)
        (6.103500 30.311270 0)
        (6.104000 30.312389 0)
        (6.104500 30.313506 0)
        (6.105000 30.314623 0)
        (6.105500 30.315738 0)
        (6.106000 30.316851 0)
        (6.106500 30.317963 0)
        (6.107000 30.319074 0)
        (6.107500 30.320183 0)
        (6.108000 30.321291 0)
        (6.108500 30.322398 0)
        (6.109000 30.323503 0)
        (6.109500 30.324608 0)
        (6.110000 30.325710 0)
        (6.110500 30.326812 0)
        (6.111000 30.327912 0)
        (6.111500 30.329010 0)
        (6.112000 30.330108 0)
        (6.112500 30.331204 0)
        (6.113000 30.332299 0)
        (6.113500 30.333393 0)
        (6.114000 30.334485 0)
        (6.114500 30.335576 0)
        (6.115000 30.336666 0)
        (6.115500 30.337754 0)
        (6.116000 30.338842 0)
        (6.116500 30.339928 0)
        (6.117000 30.341013 0)
        (6.117500 30.342096 0)
        (6.118000 30.343179 0)
        (6.118500 30.344260 0)
        (6.119000 30.345340 0)
        (6.119500 30.346419 0)
        (6.120000 30.347496 0)
        (6.120500 30.348573 0)
        (6.121000 30.349648 0)
        (6.121500 30.350722 0)
        (6.122000 30.351795 0)
        (6.122500 30.352866 0)
        (6.123000 30.353937 0)
        (6.123500 30.355006 0)
        (6.124000 30.356075 0)
        (6.124500 30.357142 0)
        (6.125000 30.358208 0)
        (6.125500 30.359273 0)
        (6.126000 30.360336 0)
        (6.126500 30.361399 0)
        (6.127000 30.362460 0)
        (6.127500 30.363521 0)
        (6.128000 30.364580 0)
        (6.128500 30.365638 0)
        (6.129000 30.366695 0)
        (6.129500 30.367751 0)
        (6.130000 30.368806 0)
        (6.130500 30.369860 0)
        (6.131000 30.370913 0)
        (6.131500 30.371965 0)
        (6.132000 30.373015 0)
        (6.132500 30.374065 0)
        (6.133000 30.375113 0)
        (6.133500 30.376161 0)
        (6.134000 30.377207 0)
        (6.134500 30.378253 0)
        (6.135000 30.379297 0)
        (6.135500 30.380340 0)
        (6.136000 30.381383 0)
        (6.136500 30.382424 0)
        (6.137000 30.383464 0)
        (6.137500 30.384503 0)
        (6.138000 30.385542 0)
        (6.138500 30.386579 0)
        (6.139000 30.387615 0)
        (6.139500 30.388650 0)
        (6.140000 30.389684 0)
        (6.140500 30.390718 0)
        (6.141000 30.391750 0)
        (6.141500 30.392781 0)
        (6.142000 30.393812 0)
        (6.142500 30.394841 0)
        (6.143000 30.395869 0)
        (6.143500 30.396897 0)
        (6.144000 30.397923 0)
        (6.144500 30.398949 0)
        (6.145000 30.399973 0)
        (6.145500 30.400997 0)
        (6.146000 30.402020 0)
        (6.146500 30.403041 0)
        (6.147000 30.404062 0)
        (6.147500 30.405082 0)
        (6.148000 30.406101 0)
        (6.148500 30.407119 0)
        (6.149000 30.408136 0)
        (6.149500 30.409152 0)
        (6.150000 30.410167 0)
        (6.150500 30.411182 0)
        (6.151000 30.412195 0)
        (6.151500 30.413208 0)
        (6.152000 30.414219 0)
        (6.152500 30.415230 0)
        (6.153000 30.416240 0)
        (6.153500 30.417249 0)
        (6.154000 30.418257 0)
        (6.154500 30.419264 0)
        (6.155000 30.420271 0)
        (6.155500 30.421276 0)
        (6.156000 30.422281 0)
        (6.156500 30.423285 0)
        (6.157000 30.424287 0)
        (6.157500 30.425289 0)
        (6.158000 30.426291 0)
        (6.158500 30.427291 0)
        (6.159000 30.428290 0)
        (6.159500 30.429289 0)
        (6.160000 30.430287 0)
        (6.160500 30.431284 0)
        (6.161000 30.432280 0)
        (6.161500 30.433275 0)
        (6.162000 30.434269 0)
        (6.162500 30.435263 0)
        (6.163000 30.436256 0)
        (6.163500 30.437248 0)
        (6.164000 30.438239 0)
        (6.164500 30.439229 0)
        (6.165000 30.440219 0)
        (6.165500 30.441207 0)
        (6.166000 30.442195 0)
        (6.166500 30.443182 0)
        (6.167000 30.444168 0)
        (6.167500 30.445154 0)
        (6.168000 30.446138 0)
        (6.168500 30.447122 0)
        (6.169000 30.448105 0)
        (6.169500 30.449088 0)
        (6.170000 30.450069 0)
        (6.170500 30.451050 0)
        (6.171000 30.452030 0)
        (6.171500 30.453009 0)
        (6.172000 30.453987 0)
        (6.172500 30.454965 0)
        (6.173000 30.455942 0)
        (6.173500 30.456918 0)
        (6.174000 30.457893 0)
        (6.174500 30.458868 0)
        (6.175000 30.459842 0)
        (6.175500 30.460815 0)
        (6.176000 30.461787 0)
        (6.176500 30.462759 0)
        (6.177000 30.463729 0)
        (6.177500 30.464699 0)
        (6.178000 30.465669 0)
        (6.178500 30.466637 0)
        (6.179000 30.467605 0)
        (6.179500 30.468572 0)
        (6.180000 30.469538 0)
        (6.180500 30.470504 0)
        (6.181000 30.471469 0)
        (6.181500 30.472433 0)
        (6.182000 30.473397 0)
        (6.182500 30.474359 0)
        (6.183000 30.475321 0)
        (6.183500 30.476283 0)
        (6.184000 30.477243 0)
        (6.184500 30.478203 0)
        (6.185000 30.479162 0)
        (6.185500 30.480121 0)
        (6.186000 30.481078 0)
        (6.186500 30.482035 0)
        (6.187000 30.482992 0)
        (6.187500 30.483947 0)
        (6.188000 30.484902 0)
        (6.188500 30.485856 0)
        (6.189000 30.486810 0)
        (6.189500 30.487763 0)
        (6.190000 30.488715 0)
        (6.190500 30.489666 0)
        (6.191000 30.490617 0)
        (6.191500 30.491567 0)
        (6.192000 30.492517 0)
        (6.192500 30.493466 0)
        (6.193000 30.494414 0)
        (6.193500 30.495361 0)
        (6.194000 30.496308 0)
        (6.194500 30.497254 0)
        (6.195000 30.498199 0)
        (6.195500 30.499144 0)
        (6.196000 30.500088 0)
        (6.196500 30.501031 0)
        (6.197000 30.501974 0)
        (6.197500 30.502916 0)
        (6.198000 30.503858 0)
        (6.198500 30.504798 0)
        (6.199000 30.505739 0)
        (6.199500 30.506678 0)
        (6.200000 30.507617 0)
        (6.200500 30.508555 0)
        (6.201000 30.509493 0)
        (6.201500 30.510430 0)
        (6.202000 30.511366 0)
        (6.202500 30.512301 0)
        (6.203000 30.513236 0)
        (6.203500 30.514171 0)
        (6.204000 30.515104 0)
        (6.204500 30.516038 0)
        (6.205000 30.516970 0)
        (6.205500 30.517902 0)
        (6.206000 30.518833 0)
        (6.206500 30.519764 0)
        (6.207000 30.520694 0)
        (6.207500 30.521623 0)
        (6.208000 30.522552 0)
        (6.208500 30.523480 0)
        (6.209000 30.524407 0)
        (6.209500 30.525334 0)
        (6.210000 30.526260 0)
        (6.210500 30.527186 0)
        (6.211000 30.528111 0)
        (6.211500 30.529036 0)
        (6.212000 30.529959 0)
        (6.212500 30.530883 0)
        (6.213000 30.531805 0)
        (6.213500 30.532727 0)
        (6.214000 30.533649 0)
        (6.214500 30.534570 0)
        (6.215000 30.535490 0)
        (6.215500 30.536409 0)
        (6.216000 30.537328 0)
        (6.216500 30.538247 0)
        (6.217000 30.539165 0)
        (6.217500 30.540082 0)
        (6.218000 30.540999 0)
        (6.218500 30.541915 0)
        (6.219000 30.542830 0)
        (6.219500 30.543745 0)
        (6.220000 30.544660 0)
        (6.220500 30.545574 0)
        (6.221000 30.546487 0)
        (6.221500 30.547399 0)
        (6.222000 30.548312 0)
        (6.222500 30.549223 0)
        (6.223000 30.550134 0)
        (6.223500 30.551044 0)
        (6.224000 30.551954 0)
        (6.224500 30.552863 0)
        (6.225000 30.553772 0)
        (6.225500 30.554680 0)
        (6.226000 30.555588 0)
        (6.226500 30.556495 0)
        (6.227000 30.557401 0)
        (6.227500 30.558307 0)
        (6.228000 30.559212 0)
        (6.228500 30.560117 0)
        (6.229000 30.561021 0)
        (6.229500 30.561925 0)
        (6.230000 30.562828 0)
        (6.230500 30.563731 0)
        (6.231000 30.564633 0)
        (6.231500 30.565534 0)
        (6.232000 30.566435 0)
        (6.232500 30.567335 0)
        (6.233000 30.568235 0)
        (6.233500 30.569135 0)
        (6.234000 30.570033 0)
        (6.234500 30.570932 0)
        (6.235000 30.571829 0)
        (6.235500 30.572726 0)
        (6.236000 30.573623 0)
        (6.236500 30.574519 0)
        (6.237000 30.575415 0)
        (6.237500 30.576310 0)
        (6.238000 30.577204 0)
        (6.238500 30.578098 0)
        (6.239000 30.578992 0)
        (6.239500 30.579884 0)
        (6.240000 30.580777 0)
        (6.240500 30.581669 0)
        (6.241000 30.582560 0)
        (6.241500 30.583451 0)
        (6.242000 30.584341 0)
        (6.242500 30.585231 0)
        (6.243000 30.586120 0)
        (6.243500 30.587009 0)
        (6.244000 30.587897 0)
        (6.244500 30.588785 0)
        (6.245000 30.589672 0)
        (6.245500 30.590559 0)
        (6.246000 30.591445 0)
        (6.246500 30.592331 0)
        (6.247000 30.593216 0)
        (6.247500 30.594101 0)
        (6.248000 30.594985 0)
        (6.248500 30.595869 0)
        (6.249000 30.596752 0)
        (6.249500 30.597635 0)
        (6.250000 30.598517 0)
        (6.250500 30.599399 0)
        (6.251000 30.600280 0)
        (6.251500 30.601160 0)
        (6.252000 30.602041 0)
        (6.252500 30.602920 0)
        (6.253000 30.603800 0)
        (6.253500 30.604678 0)
        (6.254000 30.605557 0)
        (6.254500 30.606434 0)
        (6.255000 30.607312 0)
        (6.255500 30.608188 0)
        (6.256000 30.609065 0)
        (6.256500 30.609940 0)
        (6.257000 30.610816 0)
        (6.257500 30.611691 0)
        (6.258000 30.612565 0)
        (6.258500 30.613439 0)
        (6.259000 30.614312 0)
        (6.259500 30.615185 0)
        (6.260000 30.616058 0)
        (6.260500 30.616930 0)
        (6.261000 30.617801 0)
        (6.261500 30.618672 0)
        (6.262000 30.619543 0)
        (6.262500 30.620413 0)
        (6.263000 30.621282 0)
        (6.263500 30.622151 0)
        (6.264000 30.623020 0)
        (6.264500 30.623888 0)
        (6.265000 30.624756 0)
        (6.265500 30.625623 0)
        (6.266000 30.626490 0)
        (6.266500 30.627357 0)
        (6.267000 30.628222 0)
        (6.267500 30.629088 0)
        (6.268000 30.629953 0)
        (6.268500 30.630817 0)
        (6.269000 30.631681 0)
        (6.269500 30.632545 0)
        (6.270000 30.633408 0)
        (6.270500 30.634271 0)
        (6.271000 30.635133 0)
        (6.271500 30.635995 0)
        (6.272000 30.636856 0)
        (6.272500 30.637717 0)
        (6.273000 30.638577 0)
        (6.273500 30.639437 0)
        (6.274000 30.640297 0)
        (6.274500 30.641156 0)
        (6.275000 30.642014 0)
        (6.275500 30.642873 0)
        (6.276000 30.643730 0)
        (6.276500 30.644588 0)
        (6.277000 30.645444 0)
        (6.277500 30.646301 0)
        (6.278000 30.647157 0)
        (6.278500 30.648012 0)
        (6.279000 30.648867 0)
        (6.279500 30.649722 0)
        (6.280000 30.650576 0)
        (6.280500 30.651430 0)
        (6.281000 30.652283 0)
        (6.281500 30.653136 0)
        (6.282000 30.653989 0)
        (6.282500 30.654841 0)
        (6.283000 30.655692 0)
        (6.283500 30.656543 0)
        (6.284000 30.657394 0)
        (6.284500 30.658244 0)
        (6.285000 30.659094 0)
        (6.285500 30.659944 0)
        (6.286000 30.660793 0)
        (6.286500 30.661641 0)
        (6.287000 30.662489 0)
        (6.287500 30.663337 0)
        (6.288000 30.664184 0)
        (6.288500 30.665031 0)
        (6.289000 30.665878 0)
        (6.289500 30.666724 0)
        (6.290000 30.667569 0)
        (6.290500 30.668415 0)
        (6.291000 30.669259 0)
        (6.291500 30.670104 0)
        (6.292000 30.670948 0)
        (6.292500 30.671791 0)
        (6.293000 30.672634 0)
        (6.293500 30.673477 0)
        (6.294000 30.674319 0)
        (6.294500 30.675161 0)
        (6.295000 30.676003 0)
        (6.295500 30.676844 0)
        (6.296000 30.677684 0)
        (6.296500 30.678525 0)
        (6.297000 30.679364 0)
        (6.297500 30.680204 0)
        (6.298000 30.681043 0)
        (6.298500 30.681881 0)
        (6.299000 30.682720 0)
        (6.299500 30.683557 0)
        (6.300000 30.684395 0)
        (6.300500 30.685232 0)
        (6.301000 30.686068 0)
        (6.301500 30.686904 0)
        (6.302000 30.687740 0)
        (6.302500 30.688576 0)
        (6.303000 30.689411 0)
        (6.303500 30.690245 0)
        (6.304000 30.691079 0)
        (6.304500 30.691913 0)
        (6.305000 30.692746 0)
        (6.305500 30.693579 0)
        (6.306000 30.694412 0)
        (6.306500 30.695244 0)
        (6.307000 30.696076 0)
        (6.307500 30.696907 0)
        (6.308000 30.697738 0)
        (6.308500 30.698569 0)
        (6.309000 30.699399 0)
        (6.309500 30.700229 0)
        (6.310000 30.701058 0)
        (6.310500 30.701888 0)
        (6.311000 30.702716 0)
        (6.311500 30.703544 0)
        (6.312000 30.704372 0)
        (6.312500 30.705200 0)
        (6.313000 30.706027 0)
        (6.313500 30.706854 0)
        (6.314000 30.707680 0)
        (6.314500 30.708506 0)
        (6.315000 30.709332 0)
        (6.315500 30.710157 0)
        (6.316000 30.710982 0)
        (6.316500 30.711806 0)
        (6.317000 30.712630 0)
        (6.317500 30.713454 0)
        (6.318000 30.714277 0)
        (6.318500 30.715100 0)
        (6.319000 30.715922 0)
        (6.319500 30.716745 0)
        (6.320000 30.717566 0)
        (6.320500 30.718388 0)
        (6.321000 30.719209 0)
        (6.321500 30.720030 0)
        (6.322000 30.720850 0)
        (6.322500 30.721670 0)
        (6.323000 30.722489 0)
        (6.323500 30.723308 0)
        (6.324000 30.724127 0)
        (6.324500 30.724946 0)
        (6.325000 30.725764 0)
        (6.325500 30.726581 0)
        (6.326000 30.727399 0)
        (6.326500 30.728216 0)
        (6.327000 30.729032 0)
        (6.327500 30.729849 0)
        (6.328000 30.730664 0)
        (6.328500 30.731480 0)
        (6.329000 30.732295 0)
        (6.329500 30.733110 0)
        (6.330000 30.733924 0)
        (6.330500 30.734738 0)
        (6.331000 30.735552 0)
        (6.331500 30.736365 0)
        (6.332000 30.737178 0)
        (6.332500 30.737991 0)
        (6.333000 30.738803 0)
        (6.333500 30.739615 0)
        (6.334000 30.740426 0)
        (6.334500 30.741238 0)
        (6.335000 30.742048 0)
        (6.335500 30.742859 0)
        (6.336000 30.743669 0)
        (6.336500 30.744479 0)
        (6.337000 30.745288 0)
        (6.337500 30.746097 0)
        (6.338000 30.746906 0)
        (6.338500 30.747714 0)
        (6.339000 30.748522 0)
        (6.339500 30.749330 0)
        (6.340000 30.750137 0)
        (6.340500 30.750944 0)
        (6.341000 30.751750 0)
        (6.341500 30.752557 0)
        (6.342000 30.753362 0)
        (6.342500 30.754168 0)
        (6.343000 30.754973 0)
        (6.343500 30.755778 0)
        (6.344000 30.756582 0)
        (6.344500 30.757387 0)
        (6.345000 30.758190 0)
        (6.345500 30.758994 0)
        (6.346000 30.759797 0)
        (6.346500 30.760600 0)
        (6.347000 30.761402 0)
        (6.347500 30.762204 0)
        (6.348000 30.763006 0)
        (6.348500 30.763807 0)
        (6.349000 30.764608 0)
        (6.349500 30.765409 0)
        (6.350000 30.766209 0)
        (6.350500 30.767009 0)
        (6.351000 30.767809 0)
        (6.351500 30.768608 0)
        (6.352000 30.769407 0)
        (6.352500 30.770206 0)
        (6.353000 30.771004 0)
        (6.353500 30.771802 0)
        (6.354000 30.772600 0)
        (6.354500 30.773397 0)
        (6.355000 30.774194 0)
        (6.355500 30.774991 0)
        (6.356000 30.775787 0)
        (6.356500 30.776583 0)
        (6.357000 30.777379 0)
        (6.357500 30.778174 0)
        (6.358000 30.778969 0)
        (6.358500 30.779764 0)
        (6.359000 30.780558 0)
        (6.359500 30.781352 0)
        (6.360000 30.782146 0)
        (6.360500 30.782939 0)
        (6.361000 30.783732 0)
        (6.361500 30.784525 0)
        (6.362000 30.785317 0)
        (6.362500 30.786109 0)
        (6.363000 30.786901 0)
        (6.363500 30.787692 0)
        (6.364000 30.788483 0)
        (6.364500 30.789274 0)
        (6.365000 30.790064 0)
        (6.365500 30.790854 0)
        (6.366000 30.791644 0)
        (6.366500 30.792434 0)
        (6.367000 30.793223 0)
        (6.367500 30.794011 0)
        (6.368000 30.794800 0)
        (6.368500 30.795588 0)
        (6.369000 30.796376 0)
        (6.369500 30.797163 0)
        (6.370000 30.797950 0)
        (6.370500 30.798737 0)
        (6.371000 30.799524 0)
        (6.371500 30.800310 0)
        (6.372000 30.801096 0)
        (6.372500 30.801882 0)
        (6.373000 30.802667 0)
        (6.373500 30.803452 0)
        (6.374000 30.804236 0)
        (6.374500 30.805021 0)
        (6.375000 30.805805 0)
        (6.375500 30.806588 0)
        (6.376000 30.807372 0)
        (6.376500 30.808155 0)
        (6.377000 30.808938 0)
        (6.377500 30.809720 0)
        (6.378000 30.810502 0)
        (6.378500 30.811284 0)
        (6.379000 30.812065 0)
        (6.379500 30.812847 0)
        (6.380000 30.813628 0)
        (6.380500 30.814408 0)
        (6.381000 30.815188 0)
        (6.381500 30.815968 0)
        (6.382000 30.816748 0)
        (6.382500 30.817527 0)
        (6.383000 30.818306 0)
        (6.383500 30.819085 0)
        (6.384000 30.819863 0)
        (6.384500 30.820642 0)
        (6.385000 30.821419 0)
        (6.385500 30.822197 0)
        (6.386000 30.822974 0)
        (6.386500 30.823751 0)
        (6.387000 30.824527 0)
        (6.387500 30.825304 0)
        (6.388000 30.826080 0)
        (6.388500 30.826855 0)
        (6.389000 30.827631 0)
        (6.389500 30.828406 0)
        (6.390000 30.829181 0)
        (6.390500 30.829955 0)
        (6.391000 30.830729 0)
        (6.391500 30.831503 0)
        (6.392000 30.832277 0)
        (6.392500 30.833050 0)
        (6.393000 30.833823 0)
        (6.393500 30.834595 0)
        (6.394000 30.835368 0)
        (6.394500 30.836140 0)
        (6.395000 30.836912 0)
        (6.395500 30.837683 0)
        (6.396000 30.838454 0)
        (6.396500 30.839225 0)
        (6.397000 30.839996 0)
        (6.397500 30.840766 0)
        (6.398000 30.841536 0)
        (6.398500 30.842306 0)
        (6.399000 30.843075 0)
        (6.399500 30.843844 0)
        (6.400000 30.844613 0)
        (6.400500 30.845382 0)
        (6.401000 30.846150 0)
        (6.401500 30.846918 0)
        (6.402000 30.847685 0)
        (6.402500 30.848453 0)
        (6.403000 30.849220 0)
        (6.403500 30.849987 0)
        (6.404000 30.850753 0)
        (6.404500 30.851519 0)
        (6.405000 30.852285 0)
        (6.405500 30.853051 0)
        (6.406000 30.853816 0)
        (6.406500 30.854581 0)
        (6.407000 30.855346 0)
        (6.407500 30.856110 0)
        (6.408000 30.856875 0)
        (6.408500 30.857638 0)
        (6.409000 30.858402 0)
        (6.409500 30.859165 0)
        (6.410000 30.859928 0)
        (6.410500 30.860691 0)
        (6.411000 30.861454 0)
        (6.411500 30.862216 0)
        (6.412000 30.862978 0)
        (6.412500 30.863739 0)
        (6.413000 30.864501 0)
        (6.413500 30.865262 0)
        (6.414000 30.866022 0)
        (6.414500 30.866783 0)
        (6.415000 30.867543 0)
        (6.415500 30.868303 0)
        (6.416000 30.869063 0)
        (6.416500 30.869822 0)