/*--------------------------------*- C++ -*----------------------------------*\
| =========                 |                                                 |
| \\      /  F ield         | OpenFOAM: The Open Source CFD Toolbox           |
|  \\    /   O peration     | Version:  v1912                                 |
|   \\  /    A nd           | Website:  www.openfoam.com                      |
|    \\/     M anipulation  |                                                 |
\*---------------------------------------------------------------------------*/
FoamFile
{
    version     2.0;
    format      ascii;
    class       dictionary;
    object      blockMeshDict;
}
// * * * * * * * * * * * * * * * * * * * * * * * * * * * * * * * * * * * * * //

scale   1;

// From diagram.
x_0 0;
x_1 20;
x_2 21;
x_3 41;

y_0 0;
y_1 9.9125;
y_2 10;
y_3 10.0875;
y_4 20;

zmin 0;
zmax 0.1;

vertices
(
    ($x_0 $y_2 $zmin) // 0
    ($x_1 $y_2 $zmin) // 1
    ($x_2 $y_2 $zmin) // 2
    ($x_3 $y_2 $zmin) // 3
    ($x_0 $y_4 $zmin) // 4
    ($x_0 $y_0 $zmin) // 5
    ($x_1 $y_4 $zmin) // 6
    ($x_1 $y_0 $zmin) // 7
    ($x_2 $y_4 $zmin) // 8
    ($x_2 $y_0 $zmin) // 9
    ($x_3 $y_4 $zmin) // 10
    ($x_3 $y_0 $zmin) // 11
    ($x_2 $y_3 $zmin) // 12
    ($x_2 $y_1 $zmin) // 13
    ($x_3 $y_3 $zmin) // 14
    ($x_3 $y_1 $zmin) // 15

    ($x_0 $y_2 $zmax) // 16
    ($x_1 $y_2 $zmax) // 17
    ($x_2 $y_2 $zmax) // 18
    ($x_3 $y_2 $zmax) // 19
    ($x_0 $y_4 $zmax) // 20
    ($x_0 $y_0 $zmax) // 21
    ($x_1 $y_4 $zmax) // 22
    ($x_1 $y_0 $zmax) // 23
    ($x_2 $y_4 $zmax) // 24
    ($x_2 $y_0 $zmax) // 25
    ($x_3 $y_4 $zmax) // 26
    ($x_3 $y_0 $zmax) // 27
    ($x_2 $y_3 $zmax) // 28
    ($x_2 $y_1 $zmax) // 29
    ($x_3 $y_3 $zmax) // 30
    ($x_3 $y_1 $zmax) // 31
);

blocks
(
    hex (0 1 6 4 16 17 22) (20 40 1) simpleGrading (1 1 1) // 0
    hex (5 7 1 0 21 23 17 16) (20 40 1) simpleGrading (1 1 1) // 1
    hex (1 12 8 6 17 28 24 22) (40 40 1) simpleGrading (1 1 1) // 2
    hex (7 9 13 1 23 25 29 17) (40 40 1) simpleGrading (1 1 1) // 3
    hex (2 3 14 12 18 19 30 28) (40 20 1) simpleGrading (1 1 1) // 4
    hex (13 15 3 2 29 31 19 18) (40 20 1) simpleGrading (1 1 1) // 5
    hex (12 14 10 8 28 30 26 24) (40 20 1) simpleGrading (1 1 1) // 6
    hex (9 11 15 13 25 27 31 29) (40 20 1) simpleGrading (1 1 1) // 7
);

edges
(
);

boundary
(
    flow
    {
        type patch;
        faces
        (
            // Front of domain
            (0 4 6 1)
            (0 16 5 21)

            // Top of domain
            (4 20 22 6)
            (6 8 24 22)
            (8 24 26 10)

            // Back of domain
            (10 26 30 14)
            (14 30 3 19)
            (3 19 31 15)
            (15 31 27 11)

            // Bottom of domain
            (5 7 23 21)
            (7 9 25 23)
            (9 11 27 25)
        );
    }

    obstacle
    {
        type wall;
        faces
        (
            // Top of foil 
            (1 12 28 17)

            // Bottom of foil
            (1 17 29 13)

            // Back of foil
            (2 18 29 13)
            (12 28 18 2)
        );
    }

    frontAndBack
    {
        type empty;
        faces
        (
            // Upper back half
            (4 6 1 0)
            (6 8 12 1)
            (12 14 3 2)
            (8 10 12 14)

            // Lower back half
            (0 1 7 5)
            (1 13 9 7)
            (2 3 13 15)
            (13 15 11 9)

            // Upper front half
            (20 22 16 17)
            (22 24 17 28)
            (28 30 18 19)
            (28 30 26 24)

            // Lower front half
            (16 17 21 23)
            (17 29 23 25)
            (18 19 29 31)
            (29 31 25 27)
        );
    }
);

mergePatchPairs
(
);

// ************************************************************************* //
