/*--------------------------------*- C++ -*----------------------------------*\
| =========                 |                                                 |
| \\      /  F ield         | OpenFOAM: The Open Source CFD Toolbox           |
|  \\    /   O peration     | Version:  v1912                                 |
|   \\  /    A nd           | Website:  www.openfoam.com                      |
|    \\/     M anipulation  |                                                 |
\*---------------------------------------------------------------------------*/
FoamFile
{
    version     2.0;
    format      ascii;
    class       dictionary;
    object      blockMeshDict;
}
// * * * * * * * * * * * * * * * * * * * * * * * * * * * * * * * * * * * * * //

scale   1;

// From diagram.
x_0 0;
x_1 20;
x_2 21;
x_3 41;

y_0 0;
y_1 9.9125;
y_2 10;
y_3 10.0875;
y_4 20;

zmin 0;
zmax 0.05;

vertices
(
    // block 0
    ($x_0 $y_2 $zmin) // 0
    ($x_1 $y_2 $zmin) // 1
    ($x_1 $y_4 $zmin) // 2
    ($x_0 $y_4 $zmin) // 3

    ($x_0 $y_2 $zmax) // 4
    ($x_1 $y_2 $zmax) // 5
    ($x_1 $y_4 $zmax) // 6
    ($x_0 $y_4 $zmax) // 7

    // block 1 (extra needed)
    ($x_2 $y_4 $zmin) // 8 
    ($x_2 $y_3 $zmin) // 9
    ($x_2 $y_4 $zmax) // 10 
    ($x_2 $y_3 $zmax) // 11

    // block 2 (extra needed)
    ($x_3 $y_3 $zmin) // 12
    ($x_3 $y_4 $zmin) // 13
    ($x_3 $y_3 $zmax) // 14
    ($x_3 $y_4 $zmax) // 15

    // block 3 (extra needed)
    ($x_2 $y_2 $zmin) // 16
    ($x_3 $y_2 $zmin) // 17
    ($x_2 $y_2 $zmax) // 18
    ($x_3 $y_2 $zmax) // 19
    
    // block 4 (extra needed)
    ($x_2 $y_1 $zmin) // 20
    ($x_3 $y_1 $zmin) // 21
    ($x_2 $y_1 $zmax) // 22
    ($x_3 $y_1 $zmax) // 23

    // block 5 (extra needed)
    ($x_2 $y_0 $zmin) // 24
    ($x_3 $y_0 $zmin) // 25 
    ($x_2 $y_0 $zmax) // 26
    ($x_3 $y_0 $zmax) // 27 

    // block 6 (extra needed)
    ($x_1 $y_0 $zmin) // 28
    ($x_1 $y_0 $zmax) // 29

    // bloock 7 (extra needed)
    ($x_0 $y_0 $zmin) // 30
    ($x_0 $y_0 $zmax) // 31
);

blocks
(
    hex (0 1 2 3 4 5 6 7) (80 40 1) simpleGrading (1 1 1) // 0
    hex (1 9 8 2 5 11 10 6) (20 40 1) simpleGrading (1 1 1) // 1
    hex (9 12 13 8 11 14 15 10) (80 40 1) simpleGrading (1 1 1) // 2
    hex (16 17 12 9 18 19 14 11) (80 20 1) simpleGrading (1 1 1) // 3
    hex (20 21 17 16 22 23 19 18) (80 20 1) simpleGrading (1 1 1) // 4
    hex (24 25 21 20 26 27 23 22) (80 40 1) simpleGrading (1 1 1) // 5
    hex (28 24 20 1 29 26 22 5) (20 40 1) simpleGrading (1 1 1) // 6
    hex (30 28 1 0 31 29 5 4) (80 40 1) simpleGrading (1 1 1) // 7
);

edges
(
);

boundary
(
    flow
    {
        type patch;
        faces
        (
            // Front of tunnel
            (4 7 3 0)
            (31 4 0 30)

            // Top of tunnel
            (7 6 2 3)
            (6 10 8 2)
            (10 15 13 8)

            // Back of tunnel
            (12 13 15 14)
            (17 12 14 19)
            (21 17 19 23)
            (25 21 23 27)

            // Bottom of tunnel
            (24 25 27 26)
            (28 24 26 29)
            (30 28 29 31)
        );
    }

    obstacle
    {
        type wall;
        faces
        (
            (1 9 11 5)
            (18 11 9 16)
            (22 18 16 20)
            (20 1 5 22)
        );
    }

    frontAndBack
    {
        type empty;
        faces
        (
            // Upper back
            (0 3 2 1)
            (1 2 8 9)
            (9 8 13 12)
            (16 9 12 17)

            // Lower back
            (30 0 1 28)
            (28 1 20 24)
            (24 20 21 25)
            (20 16 17 21)

            // Upper front
            (5 6 7 4)
            (11 10 6 5)
            (14 15 10 11)
            (19 14 11 18)

            // Lower front
            (29 5 4 31)
            (26 22 5 29)
            (27 23 22 26)
            (23 19 18 22)
        );
    }
);

mergePatchPairs
(
);

// ************************************************************************* //
